New "Line.l(r:p1udt1469-p1uhs0_1247)" units=km length=0.131874 bus1=p1udt1469-p1uhs0_1247x.1.2.3 bus2=p1udt1469.1.2.3 Switch=False enabled=true phases=3 linecode=3p_oh_al_acsr_4/0_penguin_3 Seasons=1 Ratings=[400,] normamps=325 emergamps=600
New "Line.l(r:p1udt1469lv-p1ulv7623)" units=km length=0.00461004 bus1=p1udt1469lv.1.2.3 bus2=p1ulv7623.1.2.3 Switch=False enabled=true phases=3 linecode=3p_ug_al_750kcmil_3_1 Seasons=1 Ratings=[400,] normamps=550 emergamps=600
New "Line.l(r:p1udt1469-p1udt940)" units=km length=0.186958 bus1=p1udt1469.1.2.3 bus2=p1udt940.1.2.3 Switch=False enabled=true phases=3 linecode=3p_oh_al_acsr_4/0_penguin_3 Seasons=1 Ratings=[400,] normamps=325 emergamps=600
New "Line.l(r:p1udt940lv-p1ulv4190)" units=km length=0.0171007 bus1=p1udt940lv.1.2 bus2=p1ulv4190.1.2 Switch=False enabled=true phases=2 linecode=1p_ug_al_1/0_brenau_2 Seasons=1 Ratings=[400,] normamps=205 emergamps=600
New "Line.padswitch(r:p1udt940-p1udt941)p1u_9557" units=none length=0.001 bus1=p1udt940.1.2.3 bus2=p1udt940-p1udt941x.1.2.3 Switch=True enabled=true phases=3 linecode=padswitch_3_3 Seasons=1 Ratings=[400,] normamps=325 emergamps=600
New "Line.l(r:p1udt940-p1udt941)" units=km length=0.0184145 bus1=p1udt940-p1udt941x.1.2.3 bus2=p1udt940-p1udt941xx.1.2.3 Switch=False enabled=true phases=3 linecode=3p_ug_al_350kcmil_3 Seasons=1 Ratings=[400,] normamps=370 emergamps=600
New "Line.padswitch(r:p1udt940-p1udt941)p1u_9558" units=none length=0.001 bus1=p1udt940-p1udt941xx.1.2.3 bus2=p1udt941.1.2.3 Switch=True enabled=true phases=3 linecode=padswitch_3_2 Seasons=1 Ratings=[400,] normamps=370 emergamps=600
New "Line.l(r:p1udt941lv-p1ulv4191)" units=km length=0.0096483 bus1=p1udt941lv.1.2.3 bus2=p1ulv4191.1.2.3 Switch=False enabled=true phases=3 linecode=3p_ug_al_350kcmil_3_2 Seasons=1 Ratings=[400,] normamps=370 emergamps=600
New "Line.padswitch(r:p1udt886-p1udt941)p1u_9555" units=none length=0.001 bus1=p1udt941.1.2.3 bus2=p1udt886-p1udt941xx.1.2.3 Switch=True enabled=true phases=3 linecode=padswitch_3_2 Seasons=1 Ratings=[400,] normamps=370 emergamps=600
New "Line.l(r:p1udt886-p1udt941)" units=km length=0.00921224 bus1=p1udt886-p1udt941xx.1.2.3 bus2=p1udt886-p1udt941x.1.2.3 Switch=False enabled=true phases=3 linecode=3p_ug_al_350kcmil_3 Seasons=1 Ratings=[400,] normamps=370 emergamps=600
New "Line.padswitch(r:p1udt886-p1udt941)p1u_9556" units=none length=0.001 bus1=p1udt886-p1udt941x.1.2.3 bus2=p1udt886.1.2.3 Switch=True enabled=true phases=3 linecode=padswitch_3_2 Seasons=1 Ratings=[400,] normamps=370 emergamps=600
New "Line.l(r:p1udt886lv-p1ulv4116)" units=km length=0.0161609 bus1=p1udt886lv.1.2 bus2=p1ulv4116.1.2 Switch=False enabled=true phases=2 linecode=1p_ug_al_4/0_sweetbriar_2 Seasons=1 Ratings=[400,] normamps=301 emergamps=600
New "Line.l(r:p1udm3863-p1udt886lv)" units=km length=0.00921224 bus1=p1udt886lv.1.2 bus2=p1udm3863.1.2 Switch=False enabled=true phases=2 linecode=1p_ug_al_1/0_brenau_2 Seasons=1 Ratings=[400,] normamps=205 emergamps=600
New "Line.l(r:p1udm3863-p1ulv4115)" units=km length=0.0162664 bus1=p1udm3863.1.2 bus2=p1ulv4115.1.2 Switch=False enabled=true phases=2 linecode=1p_ug_al_1/0_brenau_2 Seasons=1 Ratings=[400,] normamps=205 emergamps=600
New "Line.padswitch(r:p1udt886-p1udt891)p1u_9553" units=none length=0.001 bus1=p1udt886.1.2.3 bus2=p1udt886-p1udt891x.1.2.3 Switch=True enabled=true phases=3 linecode=padswitch_3_2 Seasons=1 Ratings=[400,] normamps=370 emergamps=600
New "Line.l(r:p1udt886-p1udt891)" units=km length=0.0184145 bus1=p1udt886-p1udt891x.1.2.3 bus2=p1udt886-p1udt891xx.1.2.3 Switch=False enabled=true phases=3 linecode=3p_ug_al_350kcmil_3 Seasons=1 Ratings=[400,] normamps=370 emergamps=600
New "Line.padswitch(r:p1udt886-p1udt891)p1u_9554" units=none length=0.001 bus1=p1udt886-p1udt891xx.1.2.3 bus2=p1udt891.1.2.3 Switch=True enabled=true phases=3 linecode=padswitch_3_2 Seasons=1 Ratings=[400,] normamps=370 emergamps=600
New "Line.l(r:p1udt891lv-p1ulv4129)" units=km length=0.0130114 bus1=p1udt891lv.1.2 bus2=p1ulv4129.1.2 Switch=False enabled=true phases=2 linecode=1p_ug_al_4/0_sweetbriar_2 Seasons=1 Ratings=[400,] normamps=301 emergamps=600
New "Line.padswitch(r:p1udt890-p1udt891)p1u_9551" units=none length=0.001 bus1=p1udt891.1.2.3 bus2=p1udt890-p1udt891xx.1.2.3 Switch=True enabled=true phases=3 linecode=padswitch_3_2 Seasons=1 Ratings=[400,] normamps=370 emergamps=600
New "Line.l(r:p1udt890-p1udt891)" units=km length=0.00921224 bus1=p1udt890-p1udt891xx.1.2.3 bus2=p1udt890-p1udt891x.1.2.3 Switch=False enabled=true phases=3 linecode=3p_ug_al_350kcmil_3 Seasons=1 Ratings=[400,] normamps=370 emergamps=600
New "Line.padswitch(r:p1udt890-p1udt891)p1u_9552" units=none length=0.001 bus1=p1udt890-p1udt891x.1.2.3 bus2=p1udt890.1.2.3 Switch=True enabled=true phases=3 linecode=padswitch_3_2 Seasons=1 Ratings=[400,] normamps=370 emergamps=600
New "Line.l(r:p1udt890lv-p1ulv4131)" units=km length=0.0128194 bus1=p1udt890lv.1.2 bus2=p1ulv4131.1.2 Switch=False enabled=true phases=2 linecode=1p_ug_al_4/0_sweetbriar_2 Seasons=1 Ratings=[400,] normamps=301 emergamps=600
New "Line.l(r:p1udt890lv-p1ulv7540)" units=km length=0.0164123 bus1=p1udt890lv.1.2 bus2=p1ulv7540.1.2 Switch=False enabled=true phases=2 linecode=1p_ug_al_1/0_brenau_2 Seasons=1 Ratings=[400,] normamps=205 emergamps=600
New "Line.l(r:p1udm3874-p1udt890lv)" units=km length=0.0184154 bus1=p1udt890lv.1.2 bus2=p1udm3874.1.2 Switch=False enabled=true phases=2 linecode=1p_ug_al_1/0_brenau_2 Seasons=1 Ratings=[400,] normamps=205 emergamps=600
New "Line.l(r:p1udm3874-p1ulv4128)" units=km length=0.0103747 bus1=p1udm3874.1.2 bus2=p1ulv4128.1.2 Switch=False enabled=true phases=2 linecode=1p_ug_al_1/0_brenau_2 Seasons=1 Ratings=[400,] normamps=205 emergamps=600
New "Line.l(r:p1udm3875-p1udt890lv)" units=km length=0.00921224 bus1=p1udt890lv.1.2 bus2=p1udm3875.1.2 Switch=False enabled=true phases=2 linecode=1p_ug_al_4/0_sweetbriar_2 Seasons=1 Ratings=[400,] normamps=301 emergamps=600
New "Line.l(r:p1udm3875-p1ulv4130)" units=km length=0.0126025 bus1=p1udm3875.1.2 bus2=p1ulv4130.1.2 Switch=False enabled=true phases=2 linecode=1p_ug_al_4/0_sweetbriar_2 Seasons=1 Ratings=[400,] normamps=301 emergamps=600
New "Line.l(r:p1udm3875-p1ulv7538)" units=km length=0.0163384 bus1=p1udm3875.1.2 bus2=p1ulv7538.1.2 Switch=False enabled=true phases=2 linecode=1p_ug_al_1/0_brenau_2 Seasons=1 Ratings=[400,] normamps=205 emergamps=600
New "Line.l(r:p1udm3875-p1ulv7539)" units=km length=0.0361776 bus1=p1udm3875.1.2 bus2=p1ulv7539.1.2 Switch=False enabled=true phases=2 linecode=1p_ug_al_1/0_brenau_2 Seasons=1 Ratings=[400,] normamps=205 emergamps=600
New "Line.padswitch(r:p1udt888-p1udt890)p1u_9549" units=none length=0.001 bus1=p1udt890.1.2.3 bus2=p1udt888-p1udt890xx.1.2.3 Switch=True enabled=true phases=3 linecode=padswitch_3_2 Seasons=1 Ratings=[400,] normamps=370 emergamps=600
New "Line.l(r:p1udt888-p1udt890)" units=km length=0.0460421 bus1=p1udt888-p1udt890xx.1.2.3 bus2=p1udt888-p1udt890x.1.2.3 Switch=False enabled=true phases=3 linecode=3p_ug_al_350kcmil_3 Seasons=1 Ratings=[400,] normamps=370 emergamps=600
New "Line.padswitch(r:p1udt888-p1udt890)p1u_9550" units=none length=0.001 bus1=p1udt888-p1udt890x.1.2.3 bus2=p1udt888.1.2.3 Switch=True enabled=true phases=3 linecode=padswitch_3_2 Seasons=1 Ratings=[400,] normamps=370 emergamps=600
New "Line.l(r:p1udm3868-p1udt888lv)" units=km length=0.00921224 bus1=p1udt888lv.1.2 bus2=p1udm3868.1.2 Switch=False enabled=true phases=2 linecode=1p_ug_al_1/0_brenau_2 Seasons=1 Ratings=[400,] normamps=205 emergamps=600
New "Line.l(r:p1udm3868-p1ulv4126)" units=km length=0.00960482 bus1=p1udm3868.1.2 bus2=p1ulv4126.1.2 Switch=False enabled=true phases=2 linecode=1p_ug_al_1/0_brenau_2 Seasons=1 Ratings=[400,] normamps=205 emergamps=600
New "Line.l(r:p1udm3869-p1udt888lv)" units=km length=0.00959425 bus1=p1udt888lv.1.2 bus2=p1udm3869.1.2 Switch=False enabled=true phases=2 linecode=1p_ug_al_1/0_brenau_2 Seasons=1 Ratings=[400,] normamps=205 emergamps=600
New "Line.l(r:p1udm3869-p1ulv4135)" units=km length=0.00843697 bus1=p1udm3869.1.2 bus2=p1ulv4135.1.2 Switch=False enabled=true phases=2 linecode=1p_ug_al_1/0_brenau_2 Seasons=1 Ratings=[400,] normamps=205 emergamps=600
New "Line.l(r:p1udm3870-p1udt888lv)" units=km length=0.00924504 bus1=p1udt888lv.1.2 bus2=p1udm3870.1.2 Switch=False enabled=true phases=2 linecode=1p_ug_al_1/0_brenau_2 Seasons=1 Ratings=[400,] normamps=205 emergamps=600
New "Line.l(r:p1udm3870-p1ulv7541)" units=km length=0.0105725 bus1=p1udm3870.1.2 bus2=p1ulv7541.1.2 Switch=False enabled=true phases=2 linecode=1p_ug_al_1/0_brenau_2 Seasons=1 Ratings=[400,] normamps=205 emergamps=600
New "Line.padswitch(r:p1udt885-p1udt888)p1u_9545" units=none length=0.001 bus1=p1udt888.1.2.3 bus2=p1udt885-p1udt888xx.1.2.3 Switch=True enabled=true phases=3 linecode=padswitch_3_2 Seasons=1 Ratings=[400,] normamps=370 emergamps=600
New "Line.l(r:p1udt885-p1udt888)" units=km length=0.0462359 bus1=p1udt885-p1udt888xx.1.2.3 bus2=p1udt885-p1udt888x.1.2.3 Switch=False enabled=true phases=3 linecode=3p_ug_al_350kcmil_3 Seasons=1 Ratings=[400,] normamps=370 emergamps=600
New "Line.padswitch(r:p1udt885-p1udt888)p1u_9546" units=none length=0.001 bus1=p1udt885-p1udt888x.1.2.3 bus2=p1udt885.1.2.3 Switch=True enabled=true phases=3 linecode=padswitch_3 Seasons=1 Ratings=[400,] normamps=295 emergamps=600
New "Line.l(r:p1udt885lv-p1ulv4114)" units=km length=0.0311923 bus1=p1udt885lv.1.2 bus2=p1ulv4114.1.2 Switch=False enabled=true phases=2 linecode=1p_ug_al_1/0_brenau_2 Seasons=1 Ratings=[400,] normamps=205 emergamps=600
New "Line.l(r:p1udt885lv-p1ulv4120)" units=km length=0.0107901 bus1=p1udt885lv.1.2 bus2=p1ulv4120.1.2 Switch=False enabled=true phases=2 linecode=1p_ug_al_1/0_brenau_2 Seasons=1 Ratings=[400,] normamps=205 emergamps=600
New "Line.l(r:p1udm3859-p1udt885lv)" units=km length=0.00924578 bus1=p1udt885lv.1.2 bus2=p1udm3859.1.2 Switch=False enabled=true phases=2 linecode=1p_ug_al_2/0_converse_2 Seasons=1 Ratings=[400,] normamps=233 emergamps=600
New "Line.l(r:p1udm3859-p1ulv4121)" units=km length=0.0105433 bus1=p1udm3859.1.2 bus2=p1ulv4121.1.2 Switch=False enabled=true phases=2 linecode=1p_ug_al_1/0_brenau_2 Seasons=1 Ratings=[400,] normamps=205 emergamps=600
New "Line.l(r:p1udm3859-p1udm3860)" units=km length=0.00925501 bus1=p1udm3859.1.2 bus2=p1udm3860.1.2 Switch=False enabled=true phases=2 linecode=1p_ug_al_1/0_brenau_2 Seasons=1 Ratings=[400,] normamps=205 emergamps=600
New "Line.l(r:p1udm3860-p1ulv4122)" units=km length=0.010563 bus1=p1udm3860.1.2 bus2=p1ulv4122.1.2 Switch=False enabled=true phases=2 linecode=1p_ug_al_1/0_brenau_2 Seasons=1 Ratings=[400,] normamps=205 emergamps=600
New "Line.l(r:p1udm3862-p1udt885lv)" units=km length=0.00924504 bus1=p1udt885lv.1.2 bus2=p1udm3862.1.2 Switch=False enabled=true phases=2 linecode=1p_ug_al_1/0_brenau_2 Seasons=1 Ratings=[400,] normamps=205 emergamps=600
New "Line.l(r:p1udm3862-p1ulv4125)" units=km length=0.0102519 bus1=p1udm3862.1.2 bus2=p1ulv4125.1.2 Switch=False enabled=true phases=2 linecode=1p_ug_al_1/0_brenau_2 Seasons=1 Ratings=[400,] normamps=205 emergamps=600
New "Line.l(r:p1udm3861-p1udm3862)" units=km length=0.00924504 bus1=p1udm3862.1.2 bus2=p1udm3861.1.2 Switch=False enabled=true phases=2 linecode=1p_ug_al_1/0_brenau_2 Seasons=1 Ratings=[400,] normamps=205 emergamps=600
New "Line.l(r:p1udm3861-p1ulv4124)" units=km length=0.0104387 bus1=p1udm3861.1.2 bus2=p1ulv4124.1.2 Switch=False enabled=true phases=2 linecode=1p_ug_al_1/0_brenau_2 Seasons=1 Ratings=[400,] normamps=205 emergamps=600
New "Line.padswitch(r:p1udt222-p1udt885)p1u_9411" units=none length=0.001 bus1=p1udt885.1.2.3 bus2=p1udt222-p1udt885xx.1.2.3 Switch=True enabled=true phases=3 linecode=padswitch_3_1 Seasons=1 Ratings=[400,] normamps=301 emergamps=600
New "Line.l(r:p1udt222-p1udt885)" units=km length=0.103842 bus1=p1udt222-p1udt885xx.1.2.3 bus2=p1udt222-p1udt885x.1.2.3 Switch=False enabled=true phases=3 linecode=3p_ug_al_3 Seasons=1 Ratings=[400,] normamps=295 emergamps=600
New "Line.padswitch(r:p1udt222-p1udt885)p1u_9412" units=none length=0.001 bus1=p1udt222-p1udt885x.1.2.3 bus2=p1udt222.1.2.3 Switch=True enabled=true phases=3 linecode=padswitch_3 Seasons=1 Ratings=[400,] normamps=295 emergamps=600
New "Line.l(r:p1udt222lv-p1ulv570)" units=km length=0.0140806 bus1=p1udt222lv.1.2 bus2=p1ulv570.1.2 Switch=False enabled=true phases=2 linecode=1p_ug_al_4/0_sweetbriar_2 Seasons=1 Ratings=[400,] normamps=301 emergamps=600
New "Line.padswitch(r:p1udt222-p1udt225)p1u_9409" units=none length=0.001 bus1=p1udt222.1.2.3 bus2=p1udt222-p1udt225x.1.2.3 Switch=True enabled=true phases=3 linecode=padswitch_3 Seasons=1 Ratings=[400,] normamps=295 emergamps=600
New "Line.l(r:p1udt222-p1udt225)" units=km length=0.0480006 bus1=p1udt222-p1udt225x.1.2.3 bus2=p1udt222-p1udt225xx.1.2.3 Switch=False enabled=true phases=3 linecode=3p_ug_al_3 Seasons=1 Ratings=[400,] normamps=295 emergamps=600
New "Line.padswitch(r:p1udt222-p1udt225)p1u_9410" units=none length=0.001 bus1=p1udt222-p1udt225xx.1.2.3 bus2=p1udt225.1.2.3 Switch=True enabled=true phases=3 linecode=padswitch_3 Seasons=1 Ratings=[400,] normamps=295 emergamps=600
New "Line.l(r:p1udt225lv-p1ulv575)" units=km length=0.0144733 bus1=p1udt225lv.1.2 bus2=p1ulv575.1.2 Switch=False enabled=true phases=2 linecode=1p_ug_al_4/0_sweetbriar_2 Seasons=1 Ratings=[400,] normamps=301 emergamps=600
New "Line.padswitch(r:p1udt225-p1udt434)p1u_9407" units=none length=0.001 bus1=p1udt225.1.2.3 bus2=p1udt225-p1udt434x.1.2.3 Switch=True enabled=true phases=3 linecode=padswitch_3 Seasons=1 Ratings=[400,] normamps=295 emergamps=600
New "Line.l(r:p1udt225-p1udt434)" units=km length=0.104413 bus1=p1udt225-p1udt434x.1.2.3 bus2=p1udt225-p1udt434xx.1.2.3 Switch=False enabled=true phases=3 linecode=3p_ug_al_3 Seasons=1 Ratings=[400,] normamps=295 emergamps=600
New "Line.padswitch(r:p1udt225-p1udt434)p1u_9408" units=none length=0.001 bus1=p1udt225-p1udt434xx.1.2.3 bus2=p1udt434.1.2.3 Switch=True enabled=true phases=3 linecode=padswitch_3 Seasons=1 Ratings=[400,] normamps=295 emergamps=600
New "Line.l(r:p1udt434lv-p1ulv1837)" units=km length=0.0132418 bus1=p1udt434lv.1.2 bus2=p1ulv1837.1.2 Switch=False enabled=true phases=2 linecode=1p_ug_al_4/0_sweetbriar_2 Seasons=1 Ratings=[400,] normamps=301 emergamps=600
New "Line.padswitch(r:p1udt196-p1udt434)p1u_9405" units=none length=0.001 bus1=p1udt434.1.2.3 bus2=p1udt196-p1udt434xx.1.2.3 Switch=True enabled=true phases=3 linecode=padswitch_3 Seasons=1 Ratings=[400,] normamps=295 emergamps=600
New "Line.l(r:p1udt196-p1udt434)" units=km length=0.0485025 bus1=p1udt196-p1udt434xx.1.2.3 bus2=p1udt196-p1udt434x.1.2.3 Switch=False enabled=true phases=3 linecode=3p_ug_al_3 Seasons=1 Ratings=[400,] normamps=295 emergamps=600
New "Line.padswitch(r:p1udt196-p1udt434)p1u_9406" units=none length=0.001 bus1=p1udt196-p1udt434x.1.2.3 bus2=p1udt196.1.2.3 Switch=True enabled=true phases=3 linecode=padswitch_3 Seasons=1 Ratings=[400,] normamps=295 emergamps=600
New "Line.l(r:p1udt196lv-p1ulv521)" units=km length=0.0131042 bus1=p1udt196lv.1.2 bus2=p1ulv521.1.2 Switch=False enabled=true phases=2 linecode=1p_ug_al_4/0_sweetbriar_2 Seasons=1 Ratings=[400,] normamps=301 emergamps=600
New "Line.padswitch(r:p1udt171-p1udt196)p1u_9403" units=none length=0.001 bus1=p1udt196.1.2.3 bus2=p1udt171-p1udt196xx.1.2.3 Switch=True enabled=true phases=3 linecode=padswitch_3 Seasons=1 Ratings=[400,] normamps=295 emergamps=600
New "Line.l(r:p1udt171-p1udt196)" units=km length=0.0388108 bus1=p1udt171-p1udt196xx.1.2.3 bus2=p1udt171-p1udt196x.1.2.3 Switch=False enabled=true phases=3 linecode=3p_ug_al_3 Seasons=1 Ratings=[400,] normamps=295 emergamps=600
New "Line.padswitch(r:p1udt171-p1udt196)p1u_9404" units=none length=0.001 bus1=p1udt171-p1udt196x.1.2.3 bus2=p1udt171.1.2.3 Switch=True enabled=true phases=3 linecode=padswitch_3 Seasons=1 Ratings=[400,] normamps=295 emergamps=600
New "Line.l(r:p1udt171lv-p1ulv489)" units=km length=0.0133035 bus1=p1udt171lv.1.2 bus2=p1ulv489.1.2 Switch=False enabled=true phases=2 linecode=1p_ug_al_4/0_sweetbriar_2 Seasons=1 Ratings=[400,] normamps=301 emergamps=600
New "Line.padswitch(r:p1udt171-p1udt177)p1u_9401" units=none length=0.001 bus1=p1udt171.1.2.3 bus2=p1udt171-p1udt177x.1.2.3 Switch=True enabled=true phases=3 linecode=padswitch_3 Seasons=1 Ratings=[400,] normamps=295 emergamps=600
New "Line.l(r:p1udt171-p1udt177)" units=km length=0.0382143 bus1=p1udt171-p1udt177x.1.2.3 bus2=p1udt171-p1udt177xx.1.2.3 Switch=False enabled=true phases=3 linecode=3p_ug_al_3 Seasons=1 Ratings=[400,] normamps=295 emergamps=600
New "Line.padswitch(r:p1udt171-p1udt177)p1u_9402" units=none length=0.001 bus1=p1udt171-p1udt177xx.1.2.3 bus2=p1udt177.1.2.3 Switch=True enabled=true phases=3 linecode=padswitch_3 Seasons=1 Ratings=[400,] normamps=295 emergamps=600
New "Line.l(r:p1udt177lv-p1ulv496)" units=km length=0.0151068 bus1=p1udt177lv.1.2 bus2=p1ulv496.1.2 Switch=False enabled=true phases=2 linecode=1p_ug_al_4/0_sweetbriar_2 Seasons=1 Ratings=[400,] normamps=301 emergamps=600
New "Line.padswitch(r:p1udt177-p1udt462)p1u_9399" units=none length=0.001 bus1=p1udt177.1.2.3 bus2=p1udt177-p1udt462x.1.2.3 Switch=True enabled=true phases=3 linecode=padswitch_3 Seasons=1 Ratings=[400,] normamps=295 emergamps=600
New "Line.l(r:p1udt177-p1udt462)" units=km length=0.0247516 bus1=p1udt177-p1udt462x.1.2.3 bus2=p1udt177-p1udt462xx.1.2.3 Switch=False enabled=true phases=3 linecode=3p_ug_al_3 Seasons=1 Ratings=[400,] normamps=295 emergamps=600
New "Line.padswitch(r:p1udt177-p1udt462)p1u_9400" units=none length=0.001 bus1=p1udt177-p1udt462xx.1.2.3 bus2=p1udt462.1.2.3 Switch=True enabled=true phases=3 linecode=padswitch_3 Seasons=1 Ratings=[400,] normamps=295 emergamps=600
New "Line.l(r:p1udt462lv-p1ulv1936)" units=km length=0.0148049 bus1=p1udt462lv.1.2 bus2=p1ulv1936.1.2 Switch=False enabled=true phases=2 linecode=1p_ug_al_4/0_sweetbriar_2 Seasons=1 Ratings=[400,] normamps=301 emergamps=600
New "Line.padswitch(r:p1udt207-p1udt462)p1u_9397" units=none length=0.001 bus1=p1udt462.1.2.3 bus2=p1udt207-p1udt462xx.1.2.3 Switch=True enabled=true phases=3 linecode=padswitch_3 Seasons=1 Ratings=[400,] normamps=295 emergamps=600
New "Line.l(r:p1udt207-p1udt462)" units=km length=0.114751 bus1=p1udt207-p1udt462xx.1.2.3 bus2=p1udt207-p1udt462x.1.2.3 Switch=False enabled=true phases=3 linecode=3p_ug_al_3 Seasons=1 Ratings=[400,] normamps=295 emergamps=600
New "Line.padswitch(r:p1udt207-p1udt462)p1u_9398" units=none length=0.001 bus1=p1udt207-p1udt462x.1.2.3 bus2=p1udt207.1.2.3 Switch=True enabled=true phases=3 linecode=padswitch_3 Seasons=1 Ratings=[400,] normamps=295 emergamps=600
New "Line.l(r:p1udt207lv-p1ulv542)" units=km length=0.00932655 bus1=p1udt207lv.1.2 bus2=p1ulv542.1.2 Switch=False enabled=true phases=2 linecode=1p_ug_al_4/0_sweetbriar_2 Seasons=1 Ratings=[400,] normamps=301 emergamps=600
New "Line.padswitch(r:p1udt207-p1udt251)p1u_9377" units=none length=0.001 bus1=p1udt207.1.2.3 bus2=p1udt207-p1udt251x.1.2.3 Switch=True enabled=true phases=3 linecode=padswitch_3 Seasons=1 Ratings=[400,] normamps=295 emergamps=600
New "Line.l(r:p1udt207-p1udt251)" units=km length=0.0807386 bus1=p1udt207-p1udt251x.1.2.3 bus2=p1udt207-p1udt251xx.1.2.3 Switch=False enabled=true phases=3 linecode=3p_ug_al_3 Seasons=1 Ratings=[400,] normamps=295 emergamps=600
New "Line.padswitch(r:p1udt207-p1udt251)p1u_9378" units=none length=0.001 bus1=p1udt207-p1udt251xx.1.2.3 bus2=p1udt251.1.2.3 Switch=True enabled=true phases=3 linecode=padswitch_3_8 Seasons=1 Ratings=[400,] normamps=285 emergamps=600
New "Line.l(r:p1udt251lv-p1ulv615)" units=km length=0.0139197 bus1=p1udt251lv.1.2 bus2=p1ulv615.1.2 Switch=False enabled=true phases=2 linecode=1p_ug_al_1/0_brenau_2 Seasons=1 Ratings=[400,] normamps=205 emergamps=600
New "Line.l(r:p1udt251lv-p1ulv1685)" units=km length=0.0115633 bus1=p1udt251lv.1.2 bus2=p1ulv1685.1.2 Switch=False enabled=true phases=2 linecode=1p_ug_al_1/0_brenau_2 Seasons=1 Ratings=[400,] normamps=205 emergamps=600
New "Line.l(r:p1udm949-p1udt251lv)" units=km length=0.00938331 bus1=p1udt251lv.1.2 bus2=p1udm949.1.2 Switch=False enabled=true phases=2 linecode=1p_ug_al_4/0_sweetbriar_2 Seasons=1 Ratings=[400,] normamps=301 emergamps=600
New "Line.l(r:p1udm949-p1ulv1684)" units=km length=0.0102798 bus1=p1udm949.1.2 bus2=p1ulv1684.1.2 Switch=False enabled=true phases=2 linecode=1p_ug_al_1/0_brenau_2 Seasons=1 Ratings=[400,] normamps=205 emergamps=600
New "Line.l(r:p1udm948-p1udm949)" units=km length=0.00938416 bus1=p1udm949.1.2 bus2=p1udm948.1.2 Switch=False enabled=true phases=2 linecode=1p_ug_al_4/0_sweetbriar_2 Seasons=1 Ratings=[400,] normamps=301 emergamps=600
New "Line.l(r:p1udm948-p1ulv618)" units=km length=0.0139093 bus1=p1udm948.1.2 bus2=p1ulv618.1.2 Switch=False enabled=true phases=2 linecode=1p_ug_al_1/0_brenau_2 Seasons=1 Ratings=[400,] normamps=205 emergamps=600
New "Line.l(r:p1udm948-p1ulv1693)" units=km length=0.00995894 bus1=p1udm948.1.2 bus2=p1ulv1693.1.2 Switch=False enabled=true phases=2 linecode=1p_ug_al_1/0_brenau_2 Seasons=1 Ratings=[400,] normamps=205 emergamps=600
New "Line.l(r:p1udm951-p1udt251lv)" units=km length=0.00939413 bus1=p1udt251lv.1.2 bus2=p1udm951.1.2 Switch=False enabled=true phases=2 linecode=1p_ug_al_1/0_brenau_2 Seasons=1 Ratings=[400,] normamps=205 emergamps=600
New "Line.l(r:p1udm951-p1ulv1686)" units=km length=0.0128498 bus1=p1udm951.1.2 bus2=p1ulv1686.1.2 Switch=False enabled=true phases=2 linecode=1p_ug_al_1/0_brenau_2 Seasons=1 Ratings=[400,] normamps=205 emergamps=600
New "Line.l(r:p1udm951-p1udm952)" units=km length=0.00938416 bus1=p1udm951.1.2 bus2=p1udm952.1.2 Switch=False enabled=true phases=2 linecode=1p_ug_al_1/0_brenau_2 Seasons=1 Ratings=[400,] normamps=205 emergamps=600
New "Line.l(r:p1udm952-p1ulv1687)" units=km length=0.0109136 bus1=p1udm952.1.2 bus2=p1ulv1687.1.2 Switch=False enabled=true phases=2 linecode=1p_ug_al_1/0_brenau_2 Seasons=1 Ratings=[400,] normamps=205 emergamps=600
New "Line.l(r:p1udm952-p1ulv1905)" units=km length=0.036903 bus1=p1udm952.1.2 bus2=p1ulv1905.1.2 Switch=False enabled=true phases=2 linecode=1p_ug_al_1/0_brenau_2 Seasons=1 Ratings=[400,] normamps=205 emergamps=600
New "Line.padswitch(r:p1udt251-p1udt252)p1u_9375" units=none length=0.001 bus1=p1udt251.1.2.3 bus2=p1udt251-p1udt252x.1.2.3 Switch=True enabled=true phases=3 linecode=padswitch_3_9 Seasons=1 Ratings=[400,] normamps=205 emergamps=600
New "Line.l(r:p1udt251-p1udt252)" units=km length=0.0281508 bus1=p1udt251-p1udt252x.1.2.3 bus2=p1udt251-p1udt252xx.1.2.3 Switch=False enabled=true phases=3 linecode=3p_ug_al_3 Seasons=1 Ratings=[400,] normamps=295 emergamps=600
New "Line.padswitch(r:p1udt251-p1udt252)p1u_9376" units=none length=0.001 bus1=p1udt251-p1udt252xx.1.2.3 bus2=p1udt252.1.2.3 Switch=True enabled=true phases=3 linecode=padswitch_3_8 Seasons=1 Ratings=[400,] normamps=285 emergamps=600
New "Line.l(r:p1udt252lv-p1ulv619)" units=km length=0.0156679 bus1=p1udt252lv.1.2 bus2=p1ulv619.1.2 Switch=False enabled=true phases=2 linecode=1p_ug_al_1/0_brenau_2 Seasons=1 Ratings=[400,] normamps=205 emergamps=600
New "Line.l(r:p1udt252lv-p1ulv1691)" units=km length=0.0097713 bus1=p1udt252lv.1.2 bus2=p1ulv1691.1.2 Switch=False enabled=true phases=2 linecode=1p_ug_al_1/0_brenau_2 Seasons=1 Ratings=[400,] normamps=205 emergamps=600
New "Line.l(r:p1udm955-p1udt252lv)" units=km length=0.0187675 bus1=p1udt252lv.1.2 bus2=p1udm955.1.2 Switch=False enabled=true phases=2 linecode=1p_ug_al_4/0_sweetbriar_2 Seasons=1 Ratings=[400,] normamps=301 emergamps=600
New "Line.l(r:p1udm955-p1ulv616)" units=km length=0.013801 bus1=p1udm955.1.2 bus2=p1ulv616.1.2 Switch=False enabled=true phases=2 linecode=1p_ug_al_4/0_sweetbriar_2 Seasons=1 Ratings=[400,] normamps=301 emergamps=600
New "Line.l(r:p1udm957-p1udt252lv)" units=km length=0.00938416 bus1=p1udt252lv.1.2 bus2=p1udm957.1.2 Switch=False enabled=true phases=2 linecode=1p_ug_al_1/0_brenau_2 Seasons=1 Ratings=[400,] normamps=205 emergamps=600
New "Line.l(r:p1udm957-p1ulv1690)" units=km length=0.00994635 bus1=p1udm957.1.2 bus2=p1ulv1690.1.2 Switch=False enabled=true phases=2 linecode=1p_ug_al_1/0_brenau_2 Seasons=1 Ratings=[400,] normamps=205 emergamps=600
New "Line.padswitch(r:p1udt252-p1udt253)p1u_9373" units=none length=0.001 bus1=p1udt252.1.2.3 bus2=p1udt252-p1udt253x.1.2.3 Switch=True enabled=true phases=3 linecode=padswitch_3_8 Seasons=1 Ratings=[400,] normamps=285 emergamps=600
New "Line.l(r:p1udt252-p1udt253)" units=km length=0.00938416 bus1=p1udt252-p1udt253x.1.2.3 bus2=p1udt252-p1udt253xx.1.2.3 Switch=False enabled=true phases=3 linecode=3p_ug_al_3 Seasons=1 Ratings=[400,] normamps=295 emergamps=600
New "Line.padswitch(r:p1udt252-p1udt253)p1u_9374" units=none length=0.001 bus1=p1udt252-p1udt253xx.1.2.3 bus2=p1udt253.1.2.3 Switch=True enabled=true phases=3 linecode=padswitch_3 Seasons=1 Ratings=[400,] normamps=295 emergamps=600
New "Line.l(r:p1udt253lv-p1ulv620)" units=km length=0.0138088 bus1=p1udt253lv.1.2 bus2=p1ulv620.1.2 Switch=False enabled=true phases=2 linecode=1p_ug_al_4/0_sweetbriar_2 Seasons=1 Ratings=[400,] normamps=301 emergamps=600
New "Line.padswitch(r:p1udt253-p1udt256)p1u_9371" units=none length=0.001 bus1=p1udt253.1.2.3 bus2=p1udt253-p1udt256x.1.2.3 Switch=True enabled=true phases=3 linecode=padswitch_3 Seasons=1 Ratings=[400,] normamps=295 emergamps=600
New "Line.l(r:p1udt253-p1udt256)" units=km length=0.02861 bus1=p1udt253-p1udt256x.1.2.3 bus2=p1udt253-p1udt256xx.1.2.3 Switch=False enabled=true phases=3 linecode=3p_ug_al_3 Seasons=1 Ratings=[400,] normamps=295 emergamps=600
New "Line.padswitch(r:p1udt253-p1udt256)p1u_9372" units=none length=0.001 bus1=p1udt253-p1udt256xx.1.2.3 bus2=p1udt256.1.2.3 Switch=True enabled=true phases=3 linecode=padswitch_3 Seasons=1 Ratings=[400,] normamps=295 emergamps=600
New "Line.l(r:p1udt256lv-p1ulv635)" units=km length=0.0129328 bus1=p1udt256lv.1.2 bus2=p1ulv635.1.2 Switch=False enabled=true phases=2 linecode=1p_ug_al_1/0_brenau_2 Seasons=1 Ratings=[400,] normamps=205 emergamps=600
New "Line.l(r:p1udm967-p1udt256lv)" units=km length=0.00984338 bus1=p1udt256lv.1.2 bus2=p1udm967.1.2 Switch=False enabled=true phases=2 linecode=1p_ug_al_1/0_brenau_2 Seasons=1 Ratings=[400,] normamps=205 emergamps=600
New "Line.l(r:p1udm967-p1ulv633)" units=km length=0.0128788 bus1=p1udm967.1.2 bus2=p1ulv633.1.2 Switch=False enabled=true phases=2 linecode=1p_ug_al_1/0_brenau_2 Seasons=1 Ratings=[400,] normamps=205 emergamps=600
New "Line.l(r:p1udm969-p1udt256lv)" units=km length=0.0193671 bus1=p1udt256lv.1.2 bus2=p1udm969.1.2 Switch=False enabled=true phases=2 linecode=1p_ug_al_4/0_sweetbriar_2 Seasons=1 Ratings=[400,] normamps=301 emergamps=600
New "Line.l(r:p1udm969-p1ulv1689)" units=km length=0.00513595 bus1=p1udm969.1.2 bus2=p1ulv1689.1.2 Switch=False enabled=true phases=2 linecode=1p_ug_al_1/0_brenau_2 Seasons=1 Ratings=[400,] normamps=205 emergamps=600
New "Line.l(r:p1udm969-p1ulv1712)" units=km length=0.00974062 bus1=p1udm969.1.2 bus2=p1ulv1712.1.2 Switch=False enabled=true phases=2 linecode=1p_ug_al_1/0_brenau_2 Seasons=1 Ratings=[400,] normamps=205 emergamps=600
New "Line.padswitch(r:p1udt237-p1udt256)p1u_9369" units=none length=0.001 bus1=p1udt256.1.2.3 bus2=p1udt237-p1udt256xx.1.2.3 Switch=True enabled=true phases=3 linecode=padswitch_3 Seasons=1 Ratings=[400,] normamps=295 emergamps=600
New "Line.l(r:p1udt237-p1udt256)" units=km length=0.0295094 bus1=p1udt237-p1udt256xx.1.2.3 bus2=p1udt237-p1udt256x.1.2.3 Switch=False enabled=true phases=3 linecode=3p_ug_al_3 Seasons=1 Ratings=[400,] normamps=295 emergamps=600
New "Line.padswitch(r:p1udt237-p1udt256)p1u_9370" units=none length=0.001 bus1=p1udt237-p1udt256x.1.2.3 bus2=p1udt237.1.2.3 Switch=True enabled=true phases=3 linecode=padswitch_3_9 Seasons=1 Ratings=[400,] normamps=205 emergamps=600
New "Line.l(r:p1udt237lv-p1ulv591)" units=km length=0.0294361 bus1=p1udt237lv.1.2 bus2=p1ulv591.1.2 Switch=False enabled=true phases=2 linecode=1p_ug_al_1/0_brenau_2 Seasons=1 Ratings=[400,] normamps=205 emergamps=600
New "Line.l(r:p1udt237lv-p1ulv638)" units=km length=0.0141243 bus1=p1udt237lv.1.2 bus2=p1ulv638.1.2 Switch=False enabled=true phases=2 linecode=1p_ug_al_1/0_brenau_2 Seasons=1 Ratings=[400,] normamps=205 emergamps=600
New "Line.l(r:p1udm861-p1udt237lv)" units=km length=0.00984257 bus1=p1udt237lv.1.2 bus2=p1udm861.1.2 Switch=False enabled=true phases=2 linecode=1p_ug_al_4/0_sweetbriar_2 Seasons=1 Ratings=[400,] normamps=301 emergamps=600
New "Line.l(r:p1udm861-p1ulv630)" units=km length=0.0127123 bus1=p1udm861.1.2 bus2=p1ulv630.1.2 Switch=False enabled=true phases=2 linecode=1p_ug_al_1/0_brenau_2 Seasons=1 Ratings=[400,] normamps=205 emergamps=600
New "Line.l(r:p1udm861-p1ulv1720)" units=km length=0.0131339 bus1=p1udm861.1.2 bus2=p1ulv1720.1.2 Switch=False enabled=true phases=2 linecode=1p_ug_al_1/0_brenau_2 Seasons=1 Ratings=[400,] normamps=205 emergamps=600
New "Line.l(r:p1udm861-p1ulv1907)" units=km length=0.0329987 bus1=p1udm861.1.2 bus2=p1ulv1907.1.2 Switch=False enabled=true phases=2 linecode=1p_ug_al_1/0_brenau_2 Seasons=1 Ratings=[400,] normamps=205 emergamps=600
New "Line.l(r:p1udm861-p1ulv1921)" units=km length=0.0245403 bus1=p1udm861.1.2 bus2=p1ulv1921.1.2 Switch=False enabled=true phases=2 linecode=1p_ug_al_1/0_brenau_2 Seasons=1 Ratings=[400,] normamps=205 emergamps=600
New "Line.l(r:p1udm860-p1udm861)" units=km length=0.00983342 bus1=p1udm861.1.2 bus2=p1udm860.1.2 Switch=False enabled=true phases=2 linecode=1p_ug_al_1/0_brenau_2 Seasons=1 Ratings=[400,] normamps=205 emergamps=600
New "Line.l(r:p1udm860-p1ulv629)" units=km length=0.0129409 bus1=p1udm860.1.2 bus2=p1ulv629.1.2 Switch=False enabled=true phases=2 linecode=1p_ug_al_1/0_brenau_2 Seasons=1 Ratings=[400,] normamps=205 emergamps=600
New "Line.l(r:p1udm860-p1ulv1719)" units=km length=0.0132358 bus1=p1udm860.1.2 bus2=p1ulv1719.1.2 Switch=False enabled=true phases=2 linecode=1p_ug_al_1/0_brenau_2 Seasons=1 Ratings=[400,] normamps=205 emergamps=600