New "Load.load_p1ulv7623" conn=wye bus1=p1ulv7623.1.2.3 kV=0.48 Vminpu=0.8 Vmaxpu=1.2 model=1 kW=61.9233885544209 kvar=4.31057990031613 phases=3
New "Load.load_p1ulv4190_1" conn=wye bus1=p1ulv4190.1 kV=0.12 Vminpu=0.8 Vmaxpu=1.2 model=1 kW=2.88868187793291 kvar=0.884043107847399 phases=1
New "Load.load_p1ulv4190_2" conn=wye bus1=p1ulv4190.2 kV=0.12 Vminpu=0.8 Vmaxpu=1.2 model=1 kW=2.88868187793291 kvar=0.884043107847399 phases=1
New "Load.load_p1ulv4191" conn=wye bus1=p1ulv4191.1.2.3 kV=0.48 Vminpu=0.8 Vmaxpu=1.2 model=1 kW=24.002686299 kvar=1.3563011417279 phases=3
New "Load.load_p1ulv4192" conn=wye bus1=p1ulv4191.1.2.3 kV=0.48 Vminpu=0.8 Vmaxpu=1.2 model=1 kW=11.5619678640485 kvar=1.85562881958179 phases=3
New "Load.load_p1ulv4116_1" conn=wye bus1=p1ulv4116.1 kV=0.12 Vminpu=0.8 Vmaxpu=1.2 model=1 kW=2.34096080548376 kvar=0.251482151177159 phases=1
New "Load.load_p1ulv4116_2" conn=wye bus1=p1ulv4116.2 kV=0.12 Vminpu=0.8 Vmaxpu=1.2 model=1 kW=2.34096080548376 kvar=0.251482151177159 phases=1
New "Load.load_p1ulv4117_1" conn=wye bus1=p1ulv4116.1 kV=0.12 Vminpu=0.8 Vmaxpu=1.2 model=1 kW=0.927631458143747 kvar=0.0341388092859772 phases=1
New "Load.load_p1ulv4117_2" conn=wye bus1=p1ulv4116.2 kV=0.12 Vminpu=0.8 Vmaxpu=1.2 model=1 kW=0.927631458143747 kvar=0.0341388092859772 phases=1
New "Load.load_p1ulv4115_1" conn=wye bus1=p1ulv4115.1 kV=0.12 Vminpu=0.8 Vmaxpu=1.2 model=1 kW=2.56395363977188 kvar=0.461574728236954 phases=1
New "Load.load_p1ulv4115_2" conn=wye bus1=p1ulv4115.2 kV=0.12 Vminpu=0.8 Vmaxpu=1.2 model=1 kW=2.56395363977188 kvar=0.461574728236954 phases=1
New "Load.load_p1ulv4129_1" conn=wye bus1=p1ulv4129.1 kV=0.12 Vminpu=0.8 Vmaxpu=1.2 model=1 kW=4.0421380834441 kvar=0.739886793308732 phases=1
New "Load.load_p1ulv4129_2" conn=wye bus1=p1ulv4129.2 kV=0.12 Vminpu=0.8 Vmaxpu=1.2 model=1 kW=4.0421380834441 kvar=0.739886793308732 phases=1
New "Load.load_p1ulv4131_1" conn=wye bus1=p1ulv4131.1 kV=0.12 Vminpu=0.8 Vmaxpu=1.2 model=1 kW=7.14058486087855 kvar=0.101511978828737 phases=1
New "Load.load_p1ulv4131_2" conn=wye bus1=p1ulv4131.2 kV=0.12 Vminpu=0.8 Vmaxpu=1.2 model=1 kW=7.14058486087855 kvar=0.101511978828737 phases=1
New "Load.load_p1ulv7540_1" conn=wye bus1=p1ulv7540.1 kV=0.12 Vminpu=0.8 Vmaxpu=1.2 model=1 kW=0.646596957922762 kvar=0.396352497206508 phases=1
New "Load.load_p1ulv7540_2" conn=wye bus1=p1ulv7540.2 kV=0.12 Vminpu=0.8 Vmaxpu=1.2 model=1 kW=0.646596957922762 kvar=0.396352497206508 phases=1
New "Load.load_p1ulv4128_1" conn=wye bus1=p1ulv4128.1 kV=0.12 Vminpu=0.8 Vmaxpu=1.2 model=1 kW=1.92103925177175 kvar=0.644404219592232 phases=1
New "Load.load_p1ulv4128_2" conn=wye bus1=p1ulv4128.2 kV=0.12 Vminpu=0.8 Vmaxpu=1.2 model=1 kW=1.92103925177175 kvar=0.644404219592232 phases=1
New "Load.load_p1ulv4130_1" conn=wye bus1=p1ulv4130.1 kV=0.12 Vminpu=0.8 Vmaxpu=1.2 model=1 kW=4.25332881017093 kvar=1.61808536839508 phases=1
New "Load.load_p1ulv4130_2" conn=wye bus1=p1ulv4130.2 kV=0.12 Vminpu=0.8 Vmaxpu=1.2 model=1 kW=4.25332881017093 kvar=1.61808536839508 phases=1
New "Load.load_p1ulv7538_1" conn=wye bus1=p1ulv7538.1 kV=0.12 Vminpu=0.8 Vmaxpu=1.2 model=1 kW=0.963830131827628 kvar=0.0544583687810137 phases=1
New "Load.load_p1ulv7538_2" conn=wye bus1=p1ulv7538.2 kV=0.12 Vminpu=0.8 Vmaxpu=1.2 model=1 kW=0.963830131827628 kvar=0.0544583687810137 phases=1
New "Load.load_p1ulv7539_1" conn=wye bus1=p1ulv7539.1 kV=0.12 Vminpu=0.8 Vmaxpu=1.2 model=1 kW=1.12587114521893 kvar=0.0479359395078092 phases=1
New "Load.load_p1ulv7539_2" conn=wye bus1=p1ulv7539.2 kV=0.12 Vminpu=0.8 Vmaxpu=1.2 model=1 kW=1.12587114521893 kvar=0.0479359395078092 phases=1
New "Load.load_p1ulv4126_1" conn=wye bus1=p1ulv4126.1 kV=0.12 Vminpu=0.8 Vmaxpu=1.2 model=1 kW=3.06372790364399 kvar=0.558891669857919 phases=1
New "Load.load_p1ulv4126_2" conn=wye bus1=p1ulv4126.2 kV=0.12 Vminpu=0.8 Vmaxpu=1.2 model=1 kW=3.06372790364399 kvar=0.558891669857919 phases=1
New "Load.load_p1ulv4135_1" conn=wye bus1=p1ulv4135.1 kV=0.12 Vminpu=0.8 Vmaxpu=1.2 model=1 kW=2.34375412178375 kvar=0.112486513528013 phases=1
New "Load.load_p1ulv4135_2" conn=wye bus1=p1ulv4135.2 kV=0.12 Vminpu=0.8 Vmaxpu=1.2 model=1 kW=2.34375412178375 kvar=0.112486513528013 phases=1
New "Load.load_p1ulv7541_1" conn=wye bus1=p1ulv7541.1 kV=0.12 Vminpu=0.8 Vmaxpu=1.2 model=1 kW=1.11956989732821 kvar=0.496782171136758 phases=1
New "Load.load_p1ulv7541_2" conn=wye bus1=p1ulv7541.2 kV=0.12 Vminpu=0.8 Vmaxpu=1.2 model=1 kW=1.11956989732821 kvar=0.496782171136758 phases=1
New "Load.load_p1ulv4114_1" conn=wye bus1=p1ulv4114.1 kV=0.12 Vminpu=0.8 Vmaxpu=1.2 model=1 kW=0.720509087536812 kvar=0.218118719751883 phases=1
New "Load.load_p1ulv4114_2" conn=wye bus1=p1ulv4114.2 kV=0.12 Vminpu=0.8 Vmaxpu=1.2 model=1 kW=0.720509087536812 kvar=0.218118719751883 phases=1
New "Load.load_p1ulv4120_1" conn=wye bus1=p1ulv4120.1 kV=0.12 Vminpu=0.8 Vmaxpu=1.2 model=1 kW=1.27025228037509 kvar=0.0546428083534645 phases=1
New "Load.load_p1ulv4120_2" conn=wye bus1=p1ulv4120.2 kV=0.12 Vminpu=0.8 Vmaxpu=1.2 model=1 kW=1.27025228037509 kvar=0.0546428083534645 phases=1
New "Load.load_p1ulv4121_1" conn=wye bus1=p1ulv4121.1 kV=0.12 Vminpu=0.8 Vmaxpu=1.2 model=1 kW=1.50409934367118 kvar=0.844575795816177 phases=1
New "Load.load_p1ulv4121_2" conn=wye bus1=p1ulv4121.2 kV=0.12 Vminpu=0.8 Vmaxpu=1.2 model=1 kW=1.50409934367118 kvar=0.844575795816177 phases=1
New "Load.load_p1ulv4122_1" conn=wye bus1=p1ulv4122.1 kV=0.12 Vminpu=0.8 Vmaxpu=1.2 model=1 kW=11.712160041589 kvar=5.07059005420819 phases=1
New "Load.load_p1ulv4122_2" conn=wye bus1=p1ulv4122.2 kV=0.12 Vminpu=0.8 Vmaxpu=1.2 model=1 kW=11.712160041589 kvar=5.07059005420819 phases=1
New "Load.load_p1ulv4125_1" conn=wye bus1=p1ulv4125.1 kV=0.12 Vminpu=0.8 Vmaxpu=1.2 model=1 kW=1.44761476255547 kvar=0.531950824667962 phases=1
New "Load.load_p1ulv4125_2" conn=wye bus1=p1ulv4125.2 kV=0.12 Vminpu=0.8 Vmaxpu=1.2 model=1 kW=1.44761476255547 kvar=0.531950824667962 phases=1
New "Load.load_p1ulv4124_1" conn=wye bus1=p1ulv4124.1 kV=0.12 Vminpu=0.8 Vmaxpu=1.2 model=1 kW=1.83576993429281 kvar=0.677835548285424 phases=1
New "Load.load_p1ulv4124_2" conn=wye bus1=p1ulv4124.2 kV=0.12 Vminpu=0.8 Vmaxpu=1.2 model=1 kW=1.83576993429281 kvar=0.677835548285424 phases=1
New "Load.load_p1ulv570_1" conn=wye bus1=p1ulv570.1 kV=0.12 Vminpu=0.8 Vmaxpu=1.2 model=1 kW=7.62105622538414 kvar=2.25839256835377 phases=1
New "Load.load_p1ulv570_2" conn=wye bus1=p1ulv570.2 kV=0.12 Vminpu=0.8 Vmaxpu=1.2 model=1 kW=7.62105622538414 kvar=2.25839256835377 phases=1
New "Load.load_p1ulv575_1" conn=wye bus1=p1ulv575.1 kV=0.12 Vminpu=0.8 Vmaxpu=1.2 model=1 kW=10.5369888125116 kvar=3.13748131447815 phases=1
New "Load.load_p1ulv575_2" conn=wye bus1=p1ulv575.2 kV=0.12 Vminpu=0.8 Vmaxpu=1.2 model=1 kW=10.5369888125116 kvar=3.13748131447815 phases=1
New "Load.load_p1ulv1837_1" conn=wye bus1=p1ulv1837.1 kV=0.12 Vminpu=0.8 Vmaxpu=1.2 model=1 kW=7.96559411603196 kvar=3.13089022112088 phases=1
New "Load.load_p1ulv1837_2" conn=wye bus1=p1ulv1837.2 kV=0.12 Vminpu=0.8 Vmaxpu=1.2 model=1 kW=7.96559411603196 kvar=3.13089022112088 phases=1
New "Load.load_p1ulv521_1" conn=wye bus1=p1ulv521.1 kV=0.12 Vminpu=0.8 Vmaxpu=1.2 model=1 kW=4.99440429786621 kvar=2.14992965039548 phases=1
New "Load.load_p1ulv521_2" conn=wye bus1=p1ulv521.2 kV=0.12 Vminpu=0.8 Vmaxpu=1.2 model=1 kW=4.99440429786621 kvar=2.14992965039548 phases=1
New "Load.load_p1ulv489_1" conn=wye bus1=p1ulv489.1 kV=0.12 Vminpu=0.8 Vmaxpu=1.2 model=1 kW=4.48217084295673 kvar=0.467737649159745 phases=1
New "Load.load_p1ulv489_2" conn=wye bus1=p1ulv489.2 kV=0.12 Vminpu=0.8 Vmaxpu=1.2 model=1 kW=4.48217084295673 kvar=0.467737649159745 phases=1
New "Load.load_p1ulv496_1" conn=wye bus1=p1ulv496.1 kV=0.12 Vminpu=0.8 Vmaxpu=1.2 model=1 kW=4.37624382900908 kvar=1.45637461152223 phases=1
New "Load.load_p1ulv496_2" conn=wye bus1=p1ulv496.2 kV=0.12 Vminpu=0.8 Vmaxpu=1.2 model=1 kW=4.37624382900908 kvar=1.45637461152223 phases=1
New "Load.load_p1ulv1936_1" conn=wye bus1=p1ulv1936.1 kV=0.12 Vminpu=0.8 Vmaxpu=1.2 model=1 kW=4.28308270520777 kvar=1.27191683095605 phases=1
New "Load.load_p1ulv1936_2" conn=wye bus1=p1ulv1936.2 kV=0.12 Vminpu=0.8 Vmaxpu=1.2 model=1 kW=4.28308270520777 kvar=1.27191683095605 phases=1
New "Load.load_p1ulv542_1" conn=wye bus1=p1ulv542.1 kV=0.12 Vminpu=0.8 Vmaxpu=1.2 model=1 kW=6.49088158142785 kvar=1.02436582639429 phases=1
New "Load.load_p1ulv542_2" conn=wye bus1=p1ulv542.2 kV=0.12 Vminpu=0.8 Vmaxpu=1.2 model=1 kW=6.49088158142785 kvar=1.02436582639429 phases=1
New "Load.load_p1ulv615_1" conn=wye bus1=p1ulv615.1 kV=0.12 Vminpu=0.8 Vmaxpu=1.2 model=1 kW=1.09763545585146 kvar=0.330495322713958 phases=1
New "Load.load_p1ulv615_2" conn=wye bus1=p1ulv615.2 kV=0.12 Vminpu=0.8 Vmaxpu=1.2 model=1 kW=1.09763545585146 kvar=0.330495322713958 phases=1
New "Load.load_p1ulv1685_1" conn=wye bus1=p1ulv1685.1 kV=0.12 Vminpu=0.8 Vmaxpu=1.2 model=1 kW=1.20288287127927 kvar=0.49018609167369 phases=1
New "Load.load_p1ulv1685_2" conn=wye bus1=p1ulv1685.2 kV=0.12 Vminpu=0.8 Vmaxpu=1.2 model=1 kW=1.20288287127927 kvar=0.49018609167369 phases=1
New "Load.load_p1ulv1684_1" conn=wye bus1=p1ulv1684.1 kV=0.12 Vminpu=0.8 Vmaxpu=1.2 model=1 kW=2.00107813170558 kvar=0.658268858950777 phases=1
New "Load.load_p1ulv1684_2" conn=wye bus1=p1ulv1684.2 kV=0.12 Vminpu=0.8 Vmaxpu=1.2 model=1 kW=2.00107813170558 kvar=0.658268858950777 phases=1
New "Load.load_p1ulv618_1" conn=wye bus1=p1ulv618.1 kV=0.12 Vminpu=0.8 Vmaxpu=1.2 model=1 kW=2.13727220978272 kvar=0.366391925172556 phases=1
New "Load.load_p1ulv618_2" conn=wye bus1=p1ulv618.2 kV=0.12 Vminpu=0.8 Vmaxpu=1.2 model=1 kW=2.13727220978272 kvar=0.366391925172556 phases=1
New "Load.load_p1ulv1693_1" conn=wye bus1=p1ulv1693.1 kV=0.12 Vminpu=0.8 Vmaxpu=1.2 model=1 kW=2.73959088766787 kvar=0.961730926089615 phases=1
New "Load.load_p1ulv1693_2" conn=wye bus1=p1ulv1693.2 kV=0.12 Vminpu=0.8 Vmaxpu=1.2 model=1 kW=2.73959088766787 kvar=0.961730926089615 phases=1
New "Load.load_p1ulv1686_1" conn=wye bus1=p1ulv1686.1 kV=0.12 Vminpu=0.8 Vmaxpu=1.2 model=1 kW=0.728579461463398 kvar=0.0351204004424137 phases=1
New "Load.load_p1ulv1686_2" conn=wye bus1=p1ulv1686.2 kV=0.12 Vminpu=0.8 Vmaxpu=1.2 model=1 kW=0.728579461463398 kvar=0.0351204004424137 phases=1
New "Load.load_p1ulv1687_1" conn=wye bus1=p1ulv1687.1 kV=0.12 Vminpu=0.8 Vmaxpu=1.2 model=1 kW=1.50409934367118 kvar=0.844575795816177 phases=1
New "Load.load_p1ulv1687_2" conn=wye bus1=p1ulv1687.2 kV=0.12 Vminpu=0.8 Vmaxpu=1.2 model=1 kW=1.50409934367118 kvar=0.844575795816177 phases=1
New "Load.load_p1ulv1688_1" conn=wye bus1=p1ulv1687.1 kV=0.12 Vminpu=0.8 Vmaxpu=1.2 model=1 kW=1.44690308968706 kvar=0.29508932137747 phases=1
New "Load.load_p1ulv1688_2" conn=wye bus1=p1ulv1687.2 kV=0.12 Vminpu=0.8 Vmaxpu=1.2 model=1 kW=1.44690308968706 kvar=0.29508932137747 phases=1
New "Load.load_p1ulv1905_1" conn=wye bus1=p1ulv1905.1 kV=0.12 Vminpu=0.8 Vmaxpu=1.2 model=1 kW=0.509462180301858 kvar=0.165563308240928 phases=1
New "Load.load_p1ulv1905_2" conn=wye bus1=p1ulv1905.2 kV=0.12 Vminpu=0.8 Vmaxpu=1.2 model=1 kW=0.509462180301858 kvar=0.165563308240928 phases=1
New "Load.load_p1ulv619_1" conn=wye bus1=p1ulv619.1 kV=0.12 Vminpu=0.8 Vmaxpu=1.2 model=1 kW=3.25887796161318 kvar=0.295292708912709 phases=1
New "Load.load_p1ulv619_2" conn=wye bus1=p1ulv619.2 kV=0.12 Vminpu=0.8 Vmaxpu=1.2 model=1 kW=3.25887796161318 kvar=0.295292708912709 phases=1
New "Load.load_p1ulv1691_1" conn=wye bus1=p1ulv1691.1 kV=0.12 Vminpu=0.8 Vmaxpu=1.2 model=1 kW=1.00222728457236 kvar=0.332131740903205 phases=1
New "Load.load_p1ulv1691_2" conn=wye bus1=p1ulv1691.2 kV=0.12 Vminpu=0.8 Vmaxpu=1.2 model=1 kW=1.00222728457236 kvar=0.332131740903205 phases=1
New "Load.load_p1ulv1692_1" conn=wye bus1=p1ulv1691.1 kV=0.12 Vminpu=0.8 Vmaxpu=1.2 model=1 kW=2.01795344493912 kvar=1.13143750306633 phases=1
New "Load.load_p1ulv1692_2" conn=wye bus1=p1ulv1691.2 kV=0.12 Vminpu=0.8 Vmaxpu=1.2 model=1 kW=2.01795344493912 kvar=1.13143750306633 phases=1
New "Load.load_p1ulv616_1" conn=wye bus1=p1ulv616.1 kV=0.12 Vminpu=0.8 Vmaxpu=1.2 model=1 kW=4.20000696549088 kvar=1.81310532600459 phases=1
New "Load.load_p1ulv616_2" conn=wye bus1=p1ulv616.2 kV=0.12 Vminpu=0.8 Vmaxpu=1.2 model=1 kW=4.20000696549088 kvar=1.81310532600459 phases=1
New "Load.load_p1ulv617_1" conn=wye bus1=p1ulv616.1 kV=0.12 Vminpu=0.8 Vmaxpu=1.2 model=1 kW=1.0320669377753 kvar=0.271730237901758 phases=1
New "Load.load_p1ulv617_2" conn=wye bus1=p1ulv616.2 kV=0.12 Vminpu=0.8 Vmaxpu=1.2 model=1 kW=1.0320669377753 kvar=0.271730237901758 phases=1
New "Load.load_p1ulv1690_1" conn=wye bus1=p1ulv1690.1 kV=0.12 Vminpu=0.8 Vmaxpu=1.2 model=1 kW=1.33029144191296 kvar=0.515357841319728 phases=1
New "Load.load_p1ulv1690_2" conn=wye bus1=p1ulv1690.2 kV=0.12 Vminpu=0.8 Vmaxpu=1.2 model=1 kW=1.33029144191296 kvar=0.515357841319728 phases=1
New "Load.load_p1ulv620_1" conn=wye bus1=p1ulv620.1 kV=0.12 Vminpu=0.8 Vmaxpu=1.2 model=1 kW=0.646596957922762 kvar=0.396352497206508 phases=1
New "Load.load_p1ulv620_2" conn=wye bus1=p1ulv620.2 kV=0.12 Vminpu=0.8 Vmaxpu=1.2 model=1 kW=0.646596957922762 kvar=0.396352497206508 phases=1
New "Load.load_p1ulv637_1" conn=wye bus1=p1ulv620.1 kV=0.12 Vminpu=0.8 Vmaxpu=1.2 model=1 kW=5.35640395221146 kvar=1.67228875441653 phases=1
New "Load.load_p1ulv637_2" conn=wye bus1=p1ulv620.2 kV=0.12 Vminpu=0.8 Vmaxpu=1.2 model=1 kW=5.35640395221146 kvar=1.67228875441653 phases=1
New "Load.load_p1ulv635_1" conn=wye bus1=p1ulv635.1 kV=0.12 Vminpu=0.8 Vmaxpu=1.2 model=1 kW=1.4512744164269 kvar=1.00832306612537 phases=1
New "Load.load_p1ulv635_2" conn=wye bus1=p1ulv635.2 kV=0.12 Vminpu=0.8 Vmaxpu=1.2 model=1 kW=1.4512744164269 kvar=1.00832306612537 phases=1
New "Load.load_p1ulv633_1" conn=wye bus1=p1ulv633.1 kV=0.12 Vminpu=0.8 Vmaxpu=1.2 model=1 kW=0.749669073289635 kvar=0.141173906645635 phases=1
New "Load.load_p1ulv633_2" conn=wye bus1=p1ulv633.2 kV=0.12 Vminpu=0.8 Vmaxpu=1.2 model=1 kW=0.749669073289635 kvar=0.141173906645635 phases=1
New "Load.load_p1ulv634_1" conn=wye bus1=p1ulv633.1 kV=0.12 Vminpu=0.8 Vmaxpu=1.2 model=1 kW=1.33317986487369 kvar=0.4420312427461 phases=1
New "Load.load_p1ulv634_2" conn=wye bus1=p1ulv633.2 kV=0.12 Vminpu=0.8 Vmaxpu=1.2 model=1 kW=1.33317986487369 kvar=0.4420312427461 phases=1
New "Load.load_p1ulv1689_1" conn=wye bus1=p1ulv1689.1 kV=0.12 Vminpu=0.8 Vmaxpu=1.2 model=1 kW=4.71480382620088 kvar=1.02689214042615 phases=1
New "Load.load_p1ulv1689_2" conn=wye bus1=p1ulv1689.2 kV=0.12 Vminpu=0.8 Vmaxpu=1.2 model=1 kW=4.71480382620088 kvar=1.02689214042615 phases=1
New "Load.load_p1ulv1712_1" conn=wye bus1=p1ulv1712.1 kV=0.12 Vminpu=0.8 Vmaxpu=1.2 model=1 kW=1.71047042381331 kvar=0.521822404639104 phases=1
New "Load.load_p1ulv1712_2" conn=wye bus1=p1ulv1712.2 kV=0.12 Vminpu=0.8 Vmaxpu=1.2 model=1 kW=1.71047042381331 kvar=0.521822404639104 phases=1
New "Load.load_p1ulv591_1" conn=wye bus1=p1ulv591.1 kV=0.12 Vminpu=0.8 Vmaxpu=1.2 model=1 kW=2.84138068104787 kvar=0.844842277559083 phases=1
New "Load.load_p1ulv591_2" conn=wye bus1=p1ulv591.2 kV=0.12 Vminpu=0.8 Vmaxpu=1.2 model=1 kW=2.84138068104787 kvar=0.844842277559083 phases=1
New "Load.load_p1ulv638_1" conn=wye bus1=p1ulv638.1 kV=0.12 Vminpu=0.8 Vmaxpu=1.2 model=1 kW=1.17992507626533 kvar=0.0362296891530953 phases=1
New "Load.load_p1ulv638_2" conn=wye bus1=p1ulv638.2 kV=0.12 Vminpu=0.8 Vmaxpu=1.2 model=1 kW=1.17992507626533 kvar=0.0362296891530953 phases=1
New "Load.load_p1ulv639_1" conn=wye bus1=p1ulv638.1 kV=0.12 Vminpu=0.8 Vmaxpu=1.2 model=1 kW=0.202399340019221 kvar=0.101565500462854 phases=1
New "Load.load_p1ulv639_2" conn=wye bus1=p1ulv638.2 kV=0.12 Vminpu=0.8 Vmaxpu=1.2 model=1 kW=0.202399340019221 kvar=0.101565500462854 phases=1
New "Load.load_p1ulv630_1" conn=wye bus1=p1ulv630.1 kV=0.12 Vminpu=0.8 Vmaxpu=1.2 model=1 kW=0.903024322777796 kvar=0.162555544170129 phases=1
New "Load.load_p1ulv630_2" conn=wye bus1=p1ulv630.2 kV=0.12 Vminpu=0.8 Vmaxpu=1.2 model=1 kW=0.903024322777796 kvar=0.162555544170129 phases=1
New "Load.load_p1ulv1720_1" conn=wye bus1=p1ulv1720.1 kV=0.12 Vminpu=0.8 Vmaxpu=1.2 model=1 kW=1.23460915326666 kvar=0.411776236221827 phases=1
New "Load.load_p1ulv1720_2" conn=wye bus1=p1ulv1720.2 kV=0.12 Vminpu=0.8 Vmaxpu=1.2 model=1 kW=1.23460915326666 kvar=0.411776236221827 phases=1
New "Load.load_p1ulv1907_1" conn=wye bus1=p1ulv1907.1 kV=0.12 Vminpu=0.8 Vmaxpu=1.2 model=1 kW=2.95597855050741 kvar=0.883598396465826 phases=1
New "Load.load_p1ulv1907_2" conn=wye bus1=p1ulv1907.2 kV=0.12 Vminpu=0.8 Vmaxpu=1.2 model=1 kW=2.95597855050741 kvar=0.883598396465826 phases=1
New "Load.load_p1ulv1921_1" conn=wye bus1=p1ulv1921.1 kV=0.12 Vminpu=0.8 Vmaxpu=1.2 model=1 kW=1.33845697398711 kvar=0.885489847390141 phases=1
New "Load.load_p1ulv1921_2" conn=wye bus1=p1ulv1921.2 kV=0.12 Vminpu=0.8 Vmaxpu=1.2 model=1 kW=1.33845697398711 kvar=0.885489847390141 phases=1
New "Load.load_p1ulv629_1" conn=wye bus1=p1ulv629.1 kV=0.12 Vminpu=0.8 Vmaxpu=1.2 model=1 kW=1.32964109457701 kvar=0.297401824214214 phases=1
New "Load.load_p1ulv629_2" conn=wye bus1=p1ulv629.2 kV=0.12 Vminpu=0.8 Vmaxpu=1.2 model=1 kW=1.32964109457701 kvar=0.297401824214214 phases=1
New "Load.load_p1ulv1719_1" conn=wye bus1=p1ulv1719.1 kV=0.12 Vminpu=0.8 Vmaxpu=1.2 model=1 kW=0.397786732836473 kvar=0.13982560773465 phases=1
New "Load.load_p1ulv1719_2" conn=wye bus1=p1ulv1719.2 kV=0.12 Vminpu=0.8 Vmaxpu=1.2 model=1 kW=0.397786732836473 kvar=0.13982560773465 phases=1
New "Load.load_p1ulv632_1" conn=wye bus1=p1ulv632.1 kV=0.12 Vminpu=0.8 Vmaxpu=1.2 model=1 kW=1.47918998211082 kvar=0.645182156124169 phases=1
New "Load.load_p1ulv632_2" conn=wye bus1=p1ulv632.2 kV=0.12 Vminpu=0.8 Vmaxpu=1.2 model=1 kW=1.47918998211082 kvar=0.645182156124169 phases=1
New "Load.load_p1ulv636_1" conn=wye bus1=p1ulv636.1 kV=0.12 Vminpu=0.8 Vmaxpu=1.2 model=1 kW=1.09929988252966 kvar=0.730002713874655 phases=1
New "Load.load_p1ulv636_2" conn=wye bus1=p1ulv636.2 kV=0.12 Vminpu=0.8 Vmaxpu=1.2 model=1 kW=1.09929988252966 kvar=0.730002713874655 phases=1
New "Load.load_p1ulv626_1" conn=wye bus1=p1ulv626.1 kV=0.12 Vminpu=0.8 Vmaxpu=1.2 model=1 kW=2.38736631027444 kvar=0.427106220483131 phases=1
New "Load.load_p1ulv626_2" conn=wye bus1=p1ulv626.2 kV=0.12 Vminpu=0.8 Vmaxpu=1.2 model=1 kW=2.38736631027444 kvar=0.427106220483131 phases=1
New "Load.load_p1ulv627_1" conn=wye bus1=p1ulv627.1 kV=0.12 Vminpu=0.8 Vmaxpu=1.2 model=1 kW=2.68361596391324 kvar=0.702756996837703 phases=1
New "Load.load_p1ulv627_2" conn=wye bus1=p1ulv627.2 kV=0.12 Vminpu=0.8 Vmaxpu=1.2 model=1 kW=2.68361596391324 kvar=0.702756996837703 phases=1
New "Load.load_p1ulv1717_1" conn=wye bus1=p1ulv1717.1 kV=0.12 Vminpu=0.8 Vmaxpu=1.2 model=1 kW=0.646596957922762 kvar=0.396352497206508 phases=1
New "Load.load_p1ulv1717_2" conn=wye bus1=p1ulv1717.2 kV=0.12 Vminpu=0.8 Vmaxpu=1.2 model=1 kW=0.646596957922762 kvar=0.396352497206508 phases=1
New "Load.load_p1ulv628_1" conn=wye bus1=p1ulv628.1 kV=0.12 Vminpu=0.8 Vmaxpu=1.2 model=1 kW=1.23673651993234 kvar=0.350747558872907 phases=1
New "Load.load_p1ulv628_2" conn=wye bus1=p1ulv628.2 kV=0.12 Vminpu=0.8 Vmaxpu=1.2 model=1 kW=1.23673651993234 kvar=0.350747558872907 phases=1
New "Load.load_p1ulv1718_1" conn=wye bus1=p1ulv1718.1 kV=0.12 Vminpu=0.8 Vmaxpu=1.2 model=1 kW=3.26196279923208 kvar=1.34271052320146 phases=1
New "Load.load_p1ulv1718_2" conn=wye bus1=p1ulv1718.2 kV=0.12 Vminpu=0.8 Vmaxpu=1.2 model=1 kW=3.26196279923208 kvar=1.34271052320146 phases=1
New "Load.load_p1ulv631_1" conn=wye bus1=p1ulv631.1 kV=0.12 Vminpu=0.8 Vmaxpu=1.2 model=1 kW=4.71480382620088 kvar=1.02689214042615 phases=1
New "Load.load_p1ulv631_2" conn=wye bus1=p1ulv631.2 kV=0.12 Vminpu=0.8 Vmaxpu=1.2 model=1 kW=4.71480382620088 kvar=1.02689214042615 phases=1
New "Load.load_p1ulv1713_1" conn=wye bus1=p1ulv1713.1 kV=0.12 Vminpu=0.8 Vmaxpu=1.2 model=1 kW=1.6496345476637 kvar=0.743402946445258 phases=1
New "Load.load_p1ulv1713_2" conn=wye bus1=p1ulv1713.2 kV=0.12 Vminpu=0.8 Vmaxpu=1.2 model=1 kW=1.6496345476637 kvar=0.743402946445258 phases=1
New "Load.load_p1ulv1714_1" conn=wye bus1=p1ulv1714.1 kV=0.12 Vminpu=0.8 Vmaxpu=1.2 model=1 kW=1.11174666902721 kvar=0.0604998665722056 phases=1
New "Load.load_p1ulv1714_2" conn=wye bus1=p1ulv1714.2 kV=0.12 Vminpu=0.8 Vmaxpu=1.2 model=1 kW=1.11174666902721 kvar=0.0604998665722056 phases=1
New "Load.load_p1ulv1715_1" conn=wye bus1=p1ulv1715.1 kV=0.12 Vminpu=0.8 Vmaxpu=1.2 model=1 kW=2.91460805513247 kvar=0.648623656726073 phases=1
New "Load.load_p1ulv1715_2" conn=wye bus1=p1ulv1715.2 kV=0.12 Vminpu=0.8 Vmaxpu=1.2 model=1 kW=2.91460805513247 kvar=0.648623656726073 phases=1
New "Load.load_p1ulv1716_1" conn=wye bus1=p1ulv1715.1 kV=0.12 Vminpu=0.8 Vmaxpu=1.2 model=1 kW=1.08073210592596 kvar=0.363151436226858 phases=1
New "Load.load_p1ulv1716_2" conn=wye bus1=p1ulv1715.2 kV=0.12 Vminpu=0.8 Vmaxpu=1.2 model=1 kW=1.08073210592596 kvar=0.363151436226858 phases=1
New "Load.load_p1ulv1721_1" conn=wye bus1=p1ulv1721.1 kV=0.12 Vminpu=0.8 Vmaxpu=1.2 model=1 kW=1.42981492296306 kvar=0.598508004035884 phases=1
New "Load.load_p1ulv1721_2" conn=wye bus1=p1ulv1721.2 kV=0.12 Vminpu=0.8 Vmaxpu=1.2 model=1 kW=1.42981492296306 kvar=0.598508004035884 phases=1
New "Load.load_p1ulv1722_1" conn=wye bus1=p1ulv1721.1 kV=0.12 Vminpu=0.8 Vmaxpu=1.2 model=1 kW=1.09763545585146 kvar=0.330495322713958 phases=1
New "Load.load_p1ulv1722_2" conn=wye bus1=p1ulv1721.2 kV=0.12 Vminpu=0.8 Vmaxpu=1.2 model=1 kW=1.09763545585146 kvar=0.330495322713958 phases=1
New "Load.load_p1ulv1835_1" conn=wye bus1=p1ulv1835.1 kV=0.12 Vminpu=0.8 Vmaxpu=1.2 model=1 kW=0.853655472526164 kvar=0.379596416595604 phases=1
New "Load.load_p1ulv1835_2" conn=wye bus1=p1ulv1835.2 kV=0.12 Vminpu=0.8 Vmaxpu=1.2 model=1 kW=0.853655472526164 kvar=0.379596416595604 phases=1
New "Load.load_p1ulv1726_1" conn=wye bus1=p1ulv1726.1 kV=0.12 Vminpu=0.8 Vmaxpu=1.2 model=1 kW=1.25696405571565 kvar=0.457447870255966 phases=1
New "Load.load_p1ulv1726_2" conn=wye bus1=p1ulv1726.2 kV=0.12 Vminpu=0.8 Vmaxpu=1.2 model=1 kW=1.25696405571565 kvar=0.457447870255966 phases=1
New "Load.load_p1ulv17_1" conn=wye bus1=p1ulv17.1 kV=0.12 Vminpu=0.8 Vmaxpu=1.2 model=1 kW=0.928391377720455 kvar=0.201004641147327 phases=1
New "Load.load_p1ulv17_2" conn=wye bus1=p1ulv17.2 kV=0.12 Vminpu=0.8 Vmaxpu=1.2 model=1 kW=0.928391377720455 kvar=0.201004641147327 phases=1
New "Load.load_p1ulv1848_1" conn=wye bus1=p1ulv1848.1 kV=0.12 Vminpu=0.8 Vmaxpu=1.2 model=1 kW=4.83527986106101 kvar=1.58420421838627 phases=1
New "Load.load_p1ulv1848_2" conn=wye bus1=p1ulv1848.2 kV=0.12 Vminpu=0.8 Vmaxpu=1.2 model=1 kW=4.83527986106101 kvar=1.58420421838627 phases=1
New "Load.load_p1ulv1946_1" conn=wye bus1=p1ulv1946.1 kV=0.12 Vminpu=0.8 Vmaxpu=1.2 model=1 kW=4.83527986106101 kvar=1.58420421838627 phases=1
New "Load.load_p1ulv1946_2" conn=wye bus1=p1ulv1946.2 kV=0.12 Vminpu=0.8 Vmaxpu=1.2 model=1 kW=4.83527986106101 kvar=1.58420421838627 phases=1
New "Load.load_p1ulv1723_1" conn=wye bus1=p1ulv1723.1 kV=0.12 Vminpu=0.8 Vmaxpu=1.2 model=1 kW=2.83271772433862 kvar=1.08914273116787 phases=1
New "Load.load_p1ulv1723_2" conn=wye bus1=p1ulv1723.2 kV=0.12 Vminpu=0.8 Vmaxpu=1.2 model=1 kW=2.83271772433862 kvar=1.08914273116787 phases=1
New "Load.load_p1ulv1951_1" conn=wye bus1=p1ulv1951.1 kV=0.12 Vminpu=0.8 Vmaxpu=1.2 model=1 kW=1.71047042381331 kvar=0.521822404639104 phases=1
New "Load.load_p1ulv1951_2" conn=wye bus1=p1ulv1951.2 kV=0.12 Vminpu=0.8 Vmaxpu=1.2 model=1 kW=1.71047042381331 kvar=0.521822404639104 phases=1
New "Load.load_p1ulv1724_1" conn=wye bus1=p1ulv1724.1 kV=0.12 Vminpu=0.8 Vmaxpu=1.2 model=1 kW=1.62971504713509 kvar=0.177581417631977 phases=1
New "Load.load_p1ulv1724_2" conn=wye bus1=p1ulv1724.2 kV=0.12 Vminpu=0.8 Vmaxpu=1.2 model=1 kW=1.62971504713509 kvar=0.177581417631977 phases=1
New "Load.load_p1ulv1725_1" conn=wye bus1=p1ulv1725.1 kV=0.12 Vminpu=0.8 Vmaxpu=1.2 model=1 kW=1.83576993429281 kvar=0.677835548285424 phases=1
New "Load.load_p1ulv1725_2" conn=wye bus1=p1ulv1725.2 kV=0.12 Vminpu=0.8 Vmaxpu=1.2 model=1 kW=1.83576993429281 kvar=0.677835548285424 phases=1
New "Load.load_p1ulv553_1" conn=wye bus1=p1ulv553.1 kV=0.12 Vminpu=0.8 Vmaxpu=1.2 model=1 kW=0.216557671874879 kvar=0.0878457741559396 phases=1
New "Load.load_p1ulv553_2" conn=wye bus1=p1ulv553.2 kV=0.12 Vminpu=0.8 Vmaxpu=1.2 model=1 kW=0.216557671874879 kvar=0.0878457741559396 phases=1
New "Load.load_p1ulv1846_1" conn=wye bus1=p1ulv553.1 kV=0.12 Vminpu=0.8 Vmaxpu=1.2 model=1 kW=1.46202094837376 kvar=0.207433041181846 phases=1
New "Load.load_p1ulv1846_2" conn=wye bus1=p1ulv553.2 kV=0.12 Vminpu=0.8 Vmaxpu=1.2 model=1 kW=1.46202094837376 kvar=0.207433041181846 phases=1
New "Load.load_p1ulv1131_1" conn=wye bus1=p1ulv1131.1 kV=0.12 Vminpu=0.8 Vmaxpu=1.2 model=1 kW=1.4817678933738 kvar=0.629649868884502 phases=1
New "Load.load_p1ulv1131_2" conn=wye bus1=p1ulv1131.2 kV=0.12 Vminpu=0.8 Vmaxpu=1.2 model=1 kW=1.4817678933738 kvar=0.629649868884502 phases=1
New "Load.load_p1ulv1109_1" conn=wye bus1=p1ulv1109.1 kV=0.12 Vminpu=0.8 Vmaxpu=1.2 model=1 kW=0.927708012520289 kvar=0.0143957030382104 phases=1
New "Load.load_p1ulv1109_2" conn=wye bus1=p1ulv1109.2 kV=0.12 Vminpu=0.8 Vmaxpu=1.2 model=1 kW=0.927708012520289 kvar=0.0143957030382104 phases=1
New "Load.load_p1ulv1130_1" conn=wye bus1=p1ulv1130.1 kV=0.12 Vminpu=0.8 Vmaxpu=1.2 model=1 kW=1.26239928596783 kvar=0.390631025380382 phases=1
New "Load.load_p1ulv1130_2" conn=wye bus1=p1ulv1130.2 kV=0.12 Vminpu=0.8 Vmaxpu=1.2 model=1 kW=1.26239928596783 kvar=0.390631025380382 phases=1
New "Load.load_p1ulv1107_1" conn=wye bus1=p1ulv1107.1 kV=0.12 Vminpu=0.8 Vmaxpu=1.2 model=1 kW=0.342584255999418 kvar=0.127247203945604 phases=1
New "Load.load_p1ulv1107_2" conn=wye bus1=p1ulv1107.2 kV=0.12 Vminpu=0.8 Vmaxpu=1.2 model=1 kW=0.342584255999418 kvar=0.127247203945604 phases=1
New "Load.load_p1ulv1127_1" conn=wye bus1=p1ulv1127.1 kV=0.12 Vminpu=0.8 Vmaxpu=1.2 model=1 kW=2.04849148735409 kvar=0.738964485513546 phases=1
New "Load.load_p1ulv1127_2" conn=wye bus1=p1ulv1127.2 kV=0.12 Vminpu=0.8 Vmaxpu=1.2 model=1 kW=2.04849148735409 kvar=0.738964485513546 phases=1
New "Load.load_p1ulv1128_1" conn=wye bus1=p1ulv1127.1 kV=0.12 Vminpu=0.8 Vmaxpu=1.2 model=1 kW=1.58768041016026 kvar=0.15358339957016 phases=1
New "Load.load_p1ulv1128_2" conn=wye bus1=p1ulv1127.2 kV=0.12 Vminpu=0.8 Vmaxpu=1.2 model=1 kW=1.58768041016026 kvar=0.15358339957016 phases=1
New "Load.load_p1ulv1132_1" conn=wye bus1=p1ulv1132.1 kV=0.12 Vminpu=0.8 Vmaxpu=1.2 model=1 kW=0.761001298811874 kvar=0.34619485229938 phases=1
New "Load.load_p1ulv1132_2" conn=wye bus1=p1ulv1132.2 kV=0.12 Vminpu=0.8 Vmaxpu=1.2 model=1 kW=0.761001298811874 kvar=0.34619485229938 phases=1
New "Load.load_p1ulv1133_1" conn=wye bus1=p1ulv1132.1 kV=0.12 Vminpu=0.8 Vmaxpu=1.2 model=1 kW=2.43295337684153 kvar=1.21386145201185 phases=1
New "Load.load_p1ulv1133_2" conn=wye bus1=p1ulv1132.2 kV=0.12 Vminpu=0.8 Vmaxpu=1.2 model=1 kW=2.43295337684153 kvar=1.21386145201185 phases=1
New "Load.load_p1ulv1828_1" conn=wye bus1=p1ulv1828.1 kV=0.12 Vminpu=0.8 Vmaxpu=1.2 model=1 kW=2.00107813170558 kvar=0.658268858950777 phases=1
New "Load.load_p1ulv1828_2" conn=wye bus1=p1ulv1828.2 kV=0.12 Vminpu=0.8 Vmaxpu=1.2 model=1 kW=2.00107813170558 kvar=0.658268858950777 phases=1
New "Load.load_p1ulv537_1" conn=wye bus1=p1ulv537.1 kV=0.12 Vminpu=0.8 Vmaxpu=1.2 model=1 kW=0.836568362801632 kvar=0.0377797902268502 phases=1
New "Load.load_p1ulv537_2" conn=wye bus1=p1ulv537.2 kV=0.12 Vminpu=0.8 Vmaxpu=1.2 model=1 kW=0.836568362801632 kvar=0.0377797902268502 phases=1
New "Load.load_p1ulv490_1" conn=wye bus1=p1ulv490.1 kV=0.12 Vminpu=0.8 Vmaxpu=1.2 model=1 kW=1.89112884469711 kvar=0.52849636093752 phases=1
New "Load.load_p1ulv490_2" conn=wye bus1=p1ulv490.2 kV=0.12 Vminpu=0.8 Vmaxpu=1.2 model=1 kW=1.89112884469711 kvar=0.52849636093752 phases=1
New "Load.load_p1ulv586_1" conn=wye bus1=p1ulv586.1 kV=0.12 Vminpu=0.8 Vmaxpu=1.2 model=1 kW=1.35883221705456 kvar=0.355935679582998 phases=1
New "Load.load_p1ulv586_2" conn=wye bus1=p1ulv586.2 kV=0.12 Vminpu=0.8 Vmaxpu=1.2 model=1 kW=1.35883221705456 kvar=0.355935679582998 phases=1
New "Load.load_p1ulv1105_1" conn=wye bus1=p1ulv1105.1 kV=0.12 Vminpu=0.8 Vmaxpu=1.2 model=1 kW=3.26224315284823 kvar=0.23779769021703 phases=1
New "Load.load_p1ulv1105_2" conn=wye bus1=p1ulv1105.2 kV=0.12 Vminpu=0.8 Vmaxpu=1.2 model=1 kW=3.26224315284823 kvar=0.23779769021703 phases=1
New "Load.load_p1ulv1106_1" conn=wye bus1=p1ulv1105.1 kV=0.12 Vminpu=0.8 Vmaxpu=1.2 model=1 kW=2.28321570076552 kvar=0.573093046058441 phases=1
New "Load.load_p1ulv1106_2" conn=wye bus1=p1ulv1105.2 kV=0.12 Vminpu=0.8 Vmaxpu=1.2 model=1 kW=2.28321570076552 kvar=0.573093046058441 phases=1
New "Load.load_p1ulv1126_1" conn=wye bus1=p1ulv1126.1 kV=0.12 Vminpu=0.8 Vmaxpu=1.2 model=1 kW=0.483783437090578 kvar=0.258508159668023 phases=1
New "Load.load_p1ulv1126_2" conn=wye bus1=p1ulv1126.2 kV=0.12 Vminpu=0.8 Vmaxpu=1.2 model=1 kW=0.483783437090578 kvar=0.258508159668023 phases=1
New "Load.load_p1ulv1108_1" conn=wye bus1=p1ulv1108.1 kV=0.12 Vminpu=0.8 Vmaxpu=1.2 model=1 kW=1.74363260556184 kvar=0.188999221383951 phases=1
New "Load.load_p1ulv1108_2" conn=wye bus1=p1ulv1108.2 kV=0.12 Vminpu=0.8 Vmaxpu=1.2 model=1 kW=1.74363260556184 kvar=0.188999221383951 phases=1
New "Load.load_p1ulv1129_1" conn=wye bus1=p1ulv1129.1 kV=0.12 Vminpu=0.8 Vmaxpu=1.2 model=1 kW=2.89060467265533 kvar=1.17322922319159 phases=1
New "Load.load_p1ulv1129_2" conn=wye bus1=p1ulv1129.2 kV=0.12 Vminpu=0.8 Vmaxpu=1.2 model=1 kW=2.89060467265533 kvar=1.17322922319159 phases=1
New "Load.load_p1ulv1103_1" conn=wye bus1=p1ulv1103.1 kV=0.12 Vminpu=0.8 Vmaxpu=1.2 model=1 kW=1.50190918620324 kvar=0.058802858521166 phases=1
New "Load.load_p1ulv1103_2" conn=wye bus1=p1ulv1103.2 kV=0.12 Vminpu=0.8 Vmaxpu=1.2 model=1 kW=1.50190918620324 kvar=0.058802858521166 phases=1
New "Load.load_p1ulv1124_1" conn=wye bus1=p1ulv1124.1 kV=0.12 Vminpu=0.8 Vmaxpu=1.2 model=1 kW=1.55432589652715 kvar=0.582887701243119 phases=1
New "Load.load_p1ulv1124_2" conn=wye bus1=p1ulv1124.2 kV=0.12 Vminpu=0.8 Vmaxpu=1.2 model=1 kW=1.55432589652715 kvar=0.582887701243119 phases=1