New "Transformer.tr(r:p1udt1469-p1udt1469lv)" phases=3 windings=2 %loadloss=2.1568 %noloadloss=0.516667 normhkVA=165 buses=[p1udt1469, p1udt1469lv, ] conns=[wye, wye, ] kVs=[12.47, 0.48, ] kVAs=[150, 150, ] taps=[1, 1, ] buses=[p1udt1469, p1udt1469lv, ] conns=[wye, wye, ] kVs=[12.47, 0.48, ] kVAs=[150, 150, ] taps=[1, 1, ] wdg=1 %R=1.0784 RdcOhms=3.167519 wdg=2 %R=1.0784 RdcOhms=0.004693197 RdcOhms=0.004693197 emerghkVA=225 XHL=3.39
New "Transformer.tr(r:p1udt940-p1udt940lv)" phases=1 windings=3 %loadloss=0.798816 %noloadloss=0.472 normhkVA=27.5 buses=[p1udt940.2, p1udt940lv.1.0, p1udt940lv.0.2, ] conns=[wye, wye, wye, ] kVs=[7.2, 0.12, 0.12, ] kVAs=[25, 25, 25, ] taps=[1, 1, 1, ] buses=[p1udt940.2, p1udt940lv.1.0, p1udt940lv.0.2, ] conns=[wye, wye, wye, ] kVs=[7.2, 0.12, 0.12, ] kVAs=[25, 25, 25, ] taps=[1, 1, 1, ] wdg=1 %R=0.266272 RdcOhms=4.693204 wdg=2 %R=0.532544 RdcOhms=0.002607335 wdg=3 %R=0.532544 RdcOhms=0.002607335 RdcOhms=0.002607335 emerghkVA=37.5 XHL=2.4 XLT=2.4 XHT=1.6
New "Transformer.tr(r:p1udt941-p1udt941lv)" phases=3 windings=2 %loadloss=1.61095 %noloadloss=0.62 normhkVA=110 buses=[p1udt941, p1udt941lv, ] conns=[wye, wye, ] kVs=[12.47, 0.48, ] kVAs=[100, 100, ] taps=[1, 1, ] buses=[p1udt941, p1udt941lv, ] conns=[wye, wye, ] kVs=[12.47, 0.48, ] kVAs=[100, 100, ] taps=[1, 1, ] wdg=1 %R=0.805475 RdcOhms=3.548809 wdg=2 %R=0.805475 RdcOhms=0.005258141 RdcOhms=0.005258141 emerghkVA=150 XHL=3.29
New "Transformer.tr(r:p1udt886-p1udt886lv)" phases=1 windings=3 %loadloss=0.798816 %noloadloss=0.37 normhkVA=55 buses=[p1udt886.2, p1udt886lv.1.0, p1udt886lv.0.2, ] conns=[wye, wye, wye, ] kVs=[7.2, 0.12, 0.12, ] kVAs=[50, 50, 50, ] taps=[1, 1, 1, ] buses=[p1udt886.2, p1udt886lv.1.0, p1udt886lv.0.2, ] conns=[wye, wye, wye, ] kVs=[7.2, 0.12, 0.12, ] kVAs=[50, 50, 50, ] taps=[1, 1, 1, ] wdg=1 %R=0.266272 RdcOhms=2.346602 wdg=2 %R=0.532544 RdcOhms=0.001303668 wdg=3 %R=0.532544 RdcOhms=0.001303668 RdcOhms=0.001303668 emerghkVA=75 XHL=2.4 XLT=2.4 XHT=1.6
New "Transformer.tr(r:p1udt891-p1udt891lv)" phases=1 windings=3 %loadloss=0.798816 %noloadloss=0.472 normhkVA=27.5 buses=[p1udt891.3, p1udt891lv.1.0, p1udt891lv.0.2, ] conns=[wye, wye, wye, ] kVs=[7.2, 0.12, 0.12, ] kVAs=[25, 25, 25, ] taps=[1, 1, 1, ] buses=[p1udt891.3, p1udt891lv.1.0, p1udt891lv.0.2, ] conns=[wye, wye, wye, ] kVs=[7.2, 0.12, 0.12, ] kVAs=[25, 25, 25, ] taps=[1, 1, 1, ] wdg=1 %R=0.266272 RdcOhms=4.693204 wdg=2 %R=0.532544 RdcOhms=0.002607335 wdg=3 %R=0.532544 RdcOhms=0.002607335 RdcOhms=0.002607335 emerghkVA=37.5 XHL=2.4 XLT=2.4 XHT=1.6
New "Transformer.tr(r:p1udt890-p1udt890lv)" phases=1 windings=3 %loadloss=0.49926 %noloadloss=0.38 normhkVA=82.5 buses=[p1udt890.3, p1udt890lv.1.0, p1udt890lv.0.2, ] conns=[wye, wye, wye, ] kVs=[7.2, 0.12, 0.12, ] kVAs=[75, 75, 75, ] taps=[1, 1, 1, ] buses=[p1udt890.3, p1udt890lv.1.0, p1udt890lv.0.2, ] conns=[wye, wye, wye, ] kVs=[7.2, 0.12, 0.12, ] kVAs=[75, 75, 75, ] taps=[1, 1, 1, ] wdg=1 %R=0.16642 RdcOhms=0.9777508 wdg=2 %R=0.33284 RdcOhms=0.0005431949 wdg=3 %R=0.33284 RdcOhms=0.0005431949 RdcOhms=0.0005431949 emerghkVA=112.5 XHL=2.4 XLT=2.4 XHT=1.6
New "Transformer.tr(r:p1udt888-p1udt888lv)" phases=1 windings=3 %loadloss=0.798816 %noloadloss=0.37 normhkVA=55 buses=[p1udt888.3, p1udt888lv.1.0, p1udt888lv.0.2, ] conns=[wye, wye, wye, ] kVs=[7.2, 0.12, 0.12, ] kVAs=[50, 50, 50, ] taps=[1, 1, 1, ] buses=[p1udt888.3, p1udt888lv.1.0, p1udt888lv.0.2, ] conns=[wye, wye, wye, ] kVs=[7.2, 0.12, 0.12, ] kVAs=[50, 50, 50, ] taps=[1, 1, 1, ] wdg=1 %R=0.266272 RdcOhms=2.346602 wdg=2 %R=0.532544 RdcOhms=0.001303668 wdg=3 %R=0.532544 RdcOhms=0.001303668 RdcOhms=0.001303668 emerghkVA=75 XHL=2.4 XLT=2.4 XHT=1.6
New "Transformer.tr(r:p1udt885-p1udt885lv)" phases=1 windings=3 %loadloss=0.798816 %noloadloss=0.37 normhkVA=55 buses=[p1udt885.2, p1udt885lv.1.0, p1udt885lv.0.2, ] conns=[wye, wye, wye, ] kVs=[7.2, 0.12, 0.12, ] kVAs=[50, 50, 50, ] taps=[1, 1, 1, ] buses=[p1udt885.2, p1udt885lv.1.0, p1udt885lv.0.2, ] conns=[wye, wye, wye, ] kVs=[7.2, 0.12, 0.12, ] kVAs=[50, 50, 50, ] taps=[1, 1, 1, ] wdg=1 %R=0.266272 RdcOhms=2.346602 wdg=2 %R=0.532544 RdcOhms=0.001303668 wdg=3 %R=0.532544 RdcOhms=0.001303668 RdcOhms=0.001303668 emerghkVA=75 XHL=2.4 XLT=2.4 XHT=1.6
New "Transformer.tr(r:p1udt222-p1udt222lv)" phases=1 windings=3 %loadloss=0.798816 %noloadloss=0.37 normhkVA=55 buses=[p1udt222.2, p1udt222lv.1.0, p1udt222lv.0.2, ] conns=[wye, wye, wye, ] kVs=[7.2, 0.12, 0.12, ] kVAs=[50, 50, 50, ] taps=[1, 1, 1, ] buses=[p1udt222.2, p1udt222lv.1.0, p1udt222lv.0.2, ] conns=[wye, wye, wye, ] kVs=[7.2, 0.12, 0.12, ] kVAs=[50, 50, 50, ] taps=[1, 1, 1, ] wdg=1 %R=0.266272 RdcOhms=2.346602 wdg=2 %R=0.532544 RdcOhms=0.001303668 wdg=3 %R=0.532544 RdcOhms=0.001303668 RdcOhms=0.001303668 emerghkVA=75 XHL=2.4 XLT=2.4 XHT=1.6
New "Transformer.tr(r:p1udt225-p1udt225lv)" phases=1 windings=3 %loadloss=0.798816 %noloadloss=0.37 normhkVA=55 buses=[p1udt225.1, p1udt225lv.1.0, p1udt225lv.0.2, ] conns=[wye, wye, wye, ] kVs=[7.2, 0.12, 0.12, ] kVAs=[50, 50, 50, ] taps=[1, 1, 1, ] buses=[p1udt225.1, p1udt225lv.1.0, p1udt225lv.0.2, ] conns=[wye, wye, wye, ] kVs=[7.2, 0.12, 0.12, ] kVAs=[50, 50, 50, ] taps=[1, 1, 1, ] wdg=1 %R=0.266272 RdcOhms=2.346602 wdg=2 %R=0.532544 RdcOhms=0.001303668 wdg=3 %R=0.532544 RdcOhms=0.001303668 RdcOhms=0.001303668 emerghkVA=75 XHL=2.4 XLT=2.4 XHT=1.6
New "Transformer.tr(r:p1udt434-p1udt434lv)" phases=1 windings=3 %loadloss=0.798816 %noloadloss=0.37 normhkVA=55 buses=[p1udt434.2, p1udt434lv.1.0, p1udt434lv.0.2, ] conns=[wye, wye, wye, ] kVs=[7.2, 0.12, 0.12, ] kVAs=[50, 50, 50, ] taps=[1, 1, 1, ] buses=[p1udt434.2, p1udt434lv.1.0, p1udt434lv.0.2, ] conns=[wye, wye, wye, ] kVs=[7.2, 0.12, 0.12, ] kVAs=[50, 50, 50, ] taps=[1, 1, 1, ] wdg=1 %R=0.266272 RdcOhms=2.346602 wdg=2 %R=0.532544 RdcOhms=0.001303668 wdg=3 %R=0.532544 RdcOhms=0.001303668 RdcOhms=0.001303668 emerghkVA=75 XHL=2.4 XLT=2.4 XHT=1.6
New "Transformer.tr(r:p1udt196-p1udt196lv)" phases=1 windings=3 %loadloss=0.798816 %noloadloss=0.37 normhkVA=55 buses=[p1udt196.1, p1udt196lv.1.0, p1udt196lv.0.2, ] conns=[wye, wye, wye, ] kVs=[7.2, 0.12, 0.12, ] kVAs=[50, 50, 50, ] taps=[1, 1, 1, ] buses=[p1udt196.1, p1udt196lv.1.0, p1udt196lv.0.2, ] conns=[wye, wye, wye, ] kVs=[7.2, 0.12, 0.12, ] kVAs=[50, 50, 50, ] taps=[1, 1, 1, ] wdg=1 %R=0.266272 RdcOhms=2.346602 wdg=2 %R=0.532544 RdcOhms=0.001303668 wdg=3 %R=0.532544 RdcOhms=0.001303668 RdcOhms=0.001303668 emerghkVA=75 XHL=2.4 XLT=2.4 XHT=1.6
New "Transformer.tr(r:p1udt171-p1udt171lv)" phases=1 windings=3 %loadloss=0.798816 %noloadloss=0.37 normhkVA=55 buses=[p1udt171.2, p1udt171lv.1.0, p1udt171lv.0.2, ] conns=[wye, wye, wye, ] kVs=[7.2, 0.12, 0.12, ] kVAs=[50, 50, 50, ] taps=[1, 1, 1, ] buses=[p1udt171.2, p1udt171lv.1.0, p1udt171lv.0.2, ] conns=[wye, wye, wye, ] kVs=[7.2, 0.12, 0.12, ] kVAs=[50, 50, 50, ] taps=[1, 1, 1, ] wdg=1 %R=0.266272 RdcOhms=2.346602 wdg=2 %R=0.532544 RdcOhms=0.001303668 wdg=3 %R=0.532544 RdcOhms=0.001303668 RdcOhms=0.001303668 emerghkVA=75 XHL=2.4 XLT=2.4 XHT=1.6
New "Transformer.tr(r:p1udt177-p1udt177lv)" phases=1 windings=3 %loadloss=0.798816 %noloadloss=0.37 normhkVA=55 buses=[p1udt177.1, p1udt177lv.1.0, p1udt177lv.0.2, ] conns=[wye, wye, wye, ] kVs=[7.2, 0.12, 0.12, ] kVAs=[50, 50, 50, ] taps=[1, 1, 1, ] buses=[p1udt177.1, p1udt177lv.1.0, p1udt177lv.0.2, ] conns=[wye, wye, wye, ] kVs=[7.2, 0.12, 0.12, ] kVAs=[50, 50, 50, ] taps=[1, 1, 1, ] wdg=1 %R=0.266272 RdcOhms=2.346602 wdg=2 %R=0.532544 RdcOhms=0.001303668 wdg=3 %R=0.532544 RdcOhms=0.001303668 RdcOhms=0.001303668 emerghkVA=75 XHL=2.4 XLT=2.4 XHT=1.6
New "Transformer.tr(r:p1udt462-p1udt462lv)" phases=1 windings=3 %loadloss=0.798816 %noloadloss=0.37 normhkVA=55 buses=[p1udt462.2, p1udt462lv.1.0, p1udt462lv.0.2, ] conns=[wye, wye, wye, ] kVs=[7.2, 0.12, 0.12, ] kVAs=[50, 50, 50, ] taps=[1, 1, 1, ] buses=[p1udt462.2, p1udt462lv.1.0, p1udt462lv.0.2, ] conns=[wye, wye, wye, ] kVs=[7.2, 0.12, 0.12, ] kVAs=[50, 50, 50, ] taps=[1, 1, 1, ] wdg=1 %R=0.266272 RdcOhms=2.346602 wdg=2 %R=0.532544 RdcOhms=0.001303668 wdg=3 %R=0.532544 RdcOhms=0.001303668 RdcOhms=0.001303668 emerghkVA=75 XHL=2.4 XLT=2.4 XHT=1.6
New "Transformer.tr(r:p1udt207-p1udt207lv)" phases=1 windings=3 %loadloss=0.798816 %noloadloss=0.37 normhkVA=55 buses=[p1udt207.3, p1udt207lv.1.0, p1udt207lv.0.2, ] conns=[wye, wye, wye, ] kVs=[7.2, 0.12, 0.12, ] kVAs=[50, 50, 50, ] taps=[1, 1, 1, ] buses=[p1udt207.3, p1udt207lv.1.0, p1udt207lv.0.2, ] conns=[wye, wye, wye, ] kVs=[7.2, 0.12, 0.12, ] kVAs=[50, 50, 50, ] taps=[1, 1, 1, ] wdg=1 %R=0.266272 RdcOhms=2.346602 wdg=2 %R=0.532544 RdcOhms=0.001303668 wdg=3 %R=0.532544 RdcOhms=0.001303668 RdcOhms=0.001303668 emerghkVA=75 XHL=2.4 XLT=2.4 XHT=1.6
New "Transformer.tr(r:p1udt251-p1udt251lv)" phases=1 windings=3 %loadloss=0.49926 %noloadloss=0.38 normhkVA=82.5 buses=[p1udt251.1, p1udt251lv.1.0, p1udt251lv.0.2, ] conns=[wye, wye, wye, ] kVs=[7.2, 0.12, 0.12, ] kVAs=[75, 75, 75, ] taps=[1, 1, 1, ] buses=[p1udt251.1, p1udt251lv.1.0, p1udt251lv.0.2, ] conns=[wye, wye, wye, ] kVs=[7.2, 0.12, 0.12, ] kVAs=[75, 75, 75, ] taps=[1, 1, 1, ] wdg=1 %R=0.16642 RdcOhms=0.9777508 wdg=2 %R=0.33284 RdcOhms=0.0005431949 wdg=3 %R=0.33284 RdcOhms=0.0005431949 RdcOhms=0.0005431949 emerghkVA=112.5 XHL=2.4 XLT=2.4 XHT=1.6
New "Transformer.tr(r:p1udt252-p1udt252lv)" phases=1 windings=3 %loadloss=0.49926 %noloadloss=0.38 normhkVA=82.5 buses=[p1udt252.2, p1udt252lv.1.0, p1udt252lv.0.2, ] conns=[wye, wye, wye, ] kVs=[7.2, 0.12, 0.12, ] kVAs=[75, 75, 75, ] taps=[1, 1, 1, ] buses=[p1udt252.2, p1udt252lv.1.0, p1udt252lv.0.2, ] conns=[wye, wye, wye, ] kVs=[7.2, 0.12, 0.12, ] kVAs=[75, 75, 75, ] taps=[1, 1, 1, ] wdg=1 %R=0.16642 RdcOhms=0.9777508 wdg=2 %R=0.33284 RdcOhms=0.0005431949 wdg=3 %R=0.33284 RdcOhms=0.0005431949 RdcOhms=0.0005431949 emerghkVA=112.5 XHL=2.4 XLT=2.4 XHT=1.6
New "Transformer.tr(r:p1udt253-p1udt253lv)" phases=1 windings=3 %loadloss=0.798816 %noloadloss=0.37 normhkVA=55 buses=[p1udt253.1, p1udt253lv.1.0, p1udt253lv.0.2, ] conns=[wye, wye, wye, ] kVs=[7.2, 0.12, 0.12, ] kVAs=[50, 50, 50, ] taps=[1, 1, 1, ] buses=[p1udt253.1, p1udt253lv.1.0, p1udt253lv.0.2, ] conns=[wye, wye, wye, ] kVs=[7.2, 0.12, 0.12, ] kVAs=[50, 50, 50, ] taps=[1, 1, 1, ] wdg=1 %R=0.266272 RdcOhms=2.346602 wdg=2 %R=0.532544 RdcOhms=0.001303668 wdg=3 %R=0.532544 RdcOhms=0.001303668 RdcOhms=0.001303668 emerghkVA=75 XHL=2.4 XLT=2.4 XHT=1.6
New "Transformer.tr(r:p1udt256-p1udt256lv)" phases=1 windings=3 %loadloss=0.798816 %noloadloss=0.37 normhkVA=55 buses=[p1udt256.3, p1udt256lv.1.0, p1udt256lv.0.2, ] conns=[wye, wye, wye, ] kVs=[7.2, 0.12, 0.12, ] kVAs=[50, 50, 50, ] taps=[1, 1, 1, ] buses=[p1udt256.3, p1udt256lv.1.0, p1udt256lv.0.2, ] conns=[wye, wye, wye, ] kVs=[7.2, 0.12, 0.12, ] kVAs=[50, 50, 50, ] taps=[1, 1, 1, ] wdg=1 %R=0.266272 RdcOhms=2.346602 wdg=2 %R=0.532544 RdcOhms=0.001303668 wdg=3 %R=0.532544 RdcOhms=0.001303668 RdcOhms=0.001303668 emerghkVA=75 XHL=2.4 XLT=2.4 XHT=1.6
New "Transformer.tr(r:p1udt237-p1udt237lv)" phases=1 windings=3 %loadloss=0.49926 %noloadloss=0.38 normhkVA=82.5 buses=[p1udt237.2, p1udt237lv.1.0, p1udt237lv.0.2, ] conns=[wye, wye, wye, ] kVs=[7.2, 0.12, 0.12, ] kVAs=[75, 75, 75, ] taps=[1, 1, 1, ] buses=[p1udt237.2, p1udt237lv.1.0, p1udt237lv.0.2, ] conns=[wye, wye, wye, ] kVs=[7.2, 0.12, 0.12, ] kVAs=[75, 75, 75, ] taps=[1, 1, 1, ] wdg=1 %R=0.16642 RdcOhms=0.9777508 wdg=2 %R=0.33284 RdcOhms=0.0005431949 wdg=3 %R=0.33284 RdcOhms=0.0005431949 RdcOhms=0.0005431949 emerghkVA=112.5 XHL=2.4 XLT=2.4 XHT=1.6
New "Transformer.tr(r:p1udt255-p1udt255lv)" phases=1 windings=3 %loadloss=0.49926 %noloadloss=0.38 normhkVA=82.5 buses=[p1udt255.1, p1udt255lv.1.0, p1udt255lv.0.2, ] conns=[wye, wye, wye, ] kVs=[7.2, 0.12, 0.12, ] kVAs=[75, 75, 75, ] taps=[1, 1, 1, ] buses=[p1udt255.1, p1udt255lv.1.0, p1udt255lv.0.2, ] conns=[wye, wye, wye, ] kVs=[7.2, 0.12, 0.12, ] kVAs=[75, 75, 75, ] taps=[1, 1, 1, ] wdg=1 %R=0.16642 RdcOhms=0.9777508 wdg=2 %R=0.33284 RdcOhms=0.0005431949 wdg=3 %R=0.33284 RdcOhms=0.0005431949 RdcOhms=0.0005431949 emerghkVA=112.5 XHL=2.4 XLT=2.4 XHT=1.6
New "Transformer.tr(r:p1udt420-p1udt420lv)" phases=1 windings=3 %loadloss=0.798816 %noloadloss=0.37 normhkVA=55 buses=[p1udt420.1, p1udt420lv.1.0, p1udt420lv.0.2, ] conns=[wye, wye, wye, ] kVs=[7.2, 0.12, 0.12, ] kVAs=[50, 50, 50, ] taps=[1, 1, 1, ] buses=[p1udt420.1, p1udt420lv.1.0, p1udt420lv.0.2, ] conns=[wye, wye, wye, ] kVs=[7.2, 0.12, 0.12, ] kVAs=[50, 50, 50, ] taps=[1, 1, 1, ] wdg=1 %R=0.266272 RdcOhms=2.346602 wdg=2 %R=0.532544 RdcOhms=0.001303668 wdg=3 %R=0.532544 RdcOhms=0.001303668 RdcOhms=0.001303668 emerghkVA=75 XHL=2.4 XLT=2.4 XHT=1.6
New "Transformer.tr(r:p1udt16-p1udt16lv)" phases=1 windings=3 %loadloss=0.49926 %noloadloss=0.38 normhkVA=82.5 buses=[p1udt16.2, p1udt16lv.1.0, p1udt16lv.0.2, ] conns=[wye, wye, wye, ] kVs=[7.2, 0.12, 0.12, ] kVAs=[75, 75, 75, ] taps=[1, 1, 1, ] buses=[p1udt16.2, p1udt16lv.1.0, p1udt16lv.0.2, ] conns=[wye, wye, wye, ] kVs=[7.2, 0.12, 0.12, ] kVAs=[75, 75, 75, ] taps=[1, 1, 1, ] wdg=1 %R=0.16642 RdcOhms=0.9777508 wdg=2 %R=0.33284 RdcOhms=0.0005431949 wdg=3 %R=0.33284 RdcOhms=0.0005431949 RdcOhms=0.0005431949 emerghkVA=112.5 XHL=2.4 XLT=2.4 XHT=1.6
New "Transformer.tr(r:p1udt172-p1udt172lv)" phases=1 windings=3 %loadloss=0.49926 %noloadloss=0.38 normhkVA=82.5 buses=[p1udt172.3, p1udt172lv.1.0, p1udt172lv.0.2, ] conns=[wye, wye, wye, ] kVs=[7.2, 0.12, 0.12, ] kVAs=[75, 75, 75, ] taps=[1, 1, 1, ] buses=[p1udt172.3, p1udt172lv.1.0, p1udt172lv.0.2, ] conns=[wye, wye, wye, ] kVs=[7.2, 0.12, 0.12, ] kVAs=[75, 75, 75, ] taps=[1, 1, 1, ] wdg=1 %R=0.16642 RdcOhms=0.9777508 wdg=2 %R=0.33284 RdcOhms=0.0005431949 wdg=3 %R=0.33284 RdcOhms=0.0005431949 RdcOhms=0.0005431949 emerghkVA=112.5 XHL=2.4 XLT=2.4 XHT=1.6
New "Transformer.tr(r:p1udt233-p1udt233lv)" phases=1 windings=3 %loadloss=0.798816 %noloadloss=0.37 normhkVA=55 buses=[p1udt233.1, p1udt233lv.1.0, p1udt233lv.0.2, ] conns=[wye, wye, wye, ] kVs=[7.2, 0.12, 0.12, ] kVAs=[50, 50, 50, ] taps=[1, 1, 1, ] buses=[p1udt233.1, p1udt233lv.1.0, p1udt233lv.0.2, ] conns=[wye, wye, wye, ] kVs=[7.2, 0.12, 0.12, ] kVAs=[50, 50, 50, ] taps=[1, 1, 1, ] wdg=1 %R=0.266272 RdcOhms=2.346602 wdg=2 %R=0.532544 RdcOhms=0.001303668 wdg=3 %R=0.532544 RdcOhms=0.001303668 RdcOhms=0.001303668 emerghkVA=75 XHL=2.4 XLT=2.4 XHT=1.6
New "Transformer.tr(r:p1udt336-p1udt336lv)" phases=1 windings=3 %loadloss=0.798816 %noloadloss=0.37 normhkVA=55 buses=[p1udt336.3, p1udt336lv.1.0, p1udt336lv.0.2, ] conns=[wye, wye, wye, ] kVs=[7.2, 0.12, 0.12, ] kVAs=[50, 50, 50, ] taps=[1, 1, 1, ] buses=[p1udt336.3, p1udt336lv.1.0, p1udt336lv.0.2, ] conns=[wye, wye, wye, ] kVs=[7.2, 0.12, 0.12, ] kVAs=[50, 50, 50, ] taps=[1, 1, 1, ] wdg=1 %R=0.266272 RdcOhms=2.346602 wdg=2 %R=0.532544 RdcOhms=0.001303668 wdg=3 %R=0.532544 RdcOhms=0.001303668 RdcOhms=0.001303668 emerghkVA=75 XHL=2.4 XLT=2.4 XHT=1.6
New "Transformer.tr(r:p1udt14-p1udt14lv)" phases=1 windings=3 %loadloss=0.49926 %noloadloss=0.38 normhkVA=82.5 buses=[p1udt14.2, p1udt14lv.1.0, p1udt14lv.0.2, ] conns=[wye, wye, wye, ] kVs=[7.2, 0.12, 0.12, ] kVAs=[75, 75, 75, ] taps=[1, 1, 1, ] buses=[p1udt14.2, p1udt14lv.1.0, p1udt14lv.0.2, ] conns=[wye, wye, wye, ] kVs=[7.2, 0.12, 0.12, ] kVAs=[75, 75, 75, ] taps=[1, 1, 1, ] wdg=1 %R=0.16642 RdcOhms=0.9777508 wdg=2 %R=0.33284 RdcOhms=0.0005431949 wdg=3 %R=0.33284 RdcOhms=0.0005431949 RdcOhms=0.0005431949 emerghkVA=112.5 XHL=2.4 XLT=2.4 XHT=1.6
New "Transformer.tr(r:p1udt337-p1udt337lv)" phases=1 windings=3 %loadloss=0.798816 %noloadloss=0.472 normhkVA=27.5 buses=[p1udt337.2, p1udt337lv.1.0, p1udt337lv.0.2, ] conns=[wye, wye, wye, ] kVs=[7.2, 0.12, 0.12, ] kVAs=[25, 25, 25, ] taps=[1, 1, 1, ] buses=[p1udt337.2, p1udt337lv.1.0, p1udt337lv.0.2, ] conns=[wye, wye, wye, ] kVs=[7.2, 0.12, 0.12, ] kVAs=[25, 25, 25, ] taps=[1, 1, 1, ] wdg=1 %R=0.266272 RdcOhms=4.693204 wdg=2 %R=0.532544 RdcOhms=0.002607335 wdg=3 %R=0.532544 RdcOhms=0.002607335 RdcOhms=0.002607335 emerghkVA=37.5 XHL=2.4 XLT=2.4 XHT=1.6
New "Transformer.tr(r:p1udt10-p1udt10lv)" phases=1 windings=3 %loadloss=0.49926 %noloadloss=0.38 normhkVA=82.5 buses=[p1udt10.1, p1udt10lv.1.0, p1udt10lv.0.2, ] conns=[wye, wye, wye, ] kVs=[7.2, 0.12, 0.12, ] kVAs=[75, 75, 75, ] taps=[1, 1, 1, ] buses=[p1udt10.1, p1udt10lv.1.0, p1udt10lv.0.2, ] conns=[wye, wye, wye, ] kVs=[7.2, 0.12, 0.12, ] kVAs=[75, 75, 75, ] taps=[1, 1, 1, ] wdg=1 %R=0.16642 RdcOhms=0.9777508 wdg=2 %R=0.33284 RdcOhms=0.0005431949 wdg=3 %R=0.33284 RdcOhms=0.0005431949 RdcOhms=0.0005431949 emerghkVA=112.5 XHL=2.4 XLT=2.4 XHT=1.6
New "Transformer.tr(r:p1udt308-p1udt308lv)" phases=1 windings=3 %loadloss=0.798816 %noloadloss=0.37 normhkVA=55 buses=[p1udt308.3, p1udt308lv.1.0, p1udt308lv.0.2, ] conns=[wye, wye, wye, ] kVs=[7.2, 0.12, 0.12, ] kVAs=[50, 50, 50, ] taps=[1, 1, 1, ] buses=[p1udt308.3, p1udt308lv.1.0, p1udt308lv.0.2, ] conns=[wye, wye, wye, ] kVs=[7.2, 0.12, 0.12, ] kVAs=[50, 50, 50, ] taps=[1, 1, 1, ] wdg=1 %R=0.266272 RdcOhms=2.346602 wdg=2 %R=0.532544 RdcOhms=0.001303668 wdg=3 %R=0.532544 RdcOhms=0.001303668 RdcOhms=0.001303668 emerghkVA=75 XHL=2.4 XLT=2.4 XHT=1.6
New "Transformer.tr(r:p1udt288-p1udt288lv)" phases=3 windings=2 %loadloss=1.74408 %noloadloss=0.6 normhkVA=82.5 buses=[p1udt288, p1udt288lv, ] conns=[wye, wye, ] kVs=[12.47, 0.48, ] kVAs=[75, 75, ] taps=[1, 1, ] buses=[p1udt288, p1udt288lv, ] conns=[wye, wye, ] kVs=[12.47, 0.48, ] kVAs=[75, 75, ] taps=[1, 1, ] wdg=1 %R=0.87204 RdcOhms=5.12278 wdg=2 %R=0.87204 RdcOhms=0.007590236 RdcOhms=0.007590236 emerghkVA=112.5 XHL=3.24
New "Transformer.tr(r:p1udt289-p1udt289lv)" phases=3 windings=2 %loadloss=1.74408 %noloadloss=0.6 normhkVA=82.5 buses=[p1udt289, p1udt289lv, ] conns=[wye, wye, ] kVs=[12.47, 0.48, ] kVAs=[75, 75, ] taps=[1, 1, ] buses=[p1udt289, p1udt289lv, ] conns=[wye, wye, ] kVs=[12.47, 0.48, ] kVAs=[75, 75, ] taps=[1, 1, ] wdg=1 %R=0.87204 RdcOhms=5.12278 wdg=2 %R=0.87204 RdcOhms=0.007590236 RdcOhms=0.007590236 emerghkVA=112.5 XHL=3.24
New "Transformer.tr(r:p1udt174-p1udt174lv)" phases=1 windings=3 %loadloss=0.798816 %noloadloss=0.37 normhkVA=55 buses=[p1udt174.2, p1udt174lv.1.0, p1udt174lv.0.2, ] conns=[wye, wye, wye, ] kVs=[7.2, 0.12, 0.12, ] kVAs=[50, 50, 50, ] taps=[1, 1, 1, ] buses=[p1udt174.2, p1udt174lv.1.0, p1udt174lv.0.2, ] conns=[wye, wye, wye, ] kVs=[7.2, 0.12, 0.12, ] kVAs=[50, 50, 50, ] taps=[1, 1, 1, ] wdg=1 %R=0.266272 RdcOhms=2.346602 wdg=2 %R=0.532544 RdcOhms=0.001303668 wdg=3 %R=0.532544 RdcOhms=0.001303668 RdcOhms=0.001303668 emerghkVA=75 XHL=2.4 XLT=2.4 XHT=1.6
New "Transformer.tr(r:p1udt290-p1udt290lv)" phases=3 windings=2 %loadloss=1.74408 %noloadloss=0.6 normhkVA=82.5 buses=[p1udt290, p1udt290lv, ] conns=[wye, wye, ] kVs=[12.47, 0.48, ] kVAs=[75, 75, ] taps=[1, 1, ] buses=[p1udt290, p1udt290lv, ] conns=[wye, wye, ] kVs=[12.47, 0.48, ] kVAs=[75, 75, ] taps=[1, 1, ] wdg=1 %R=0.87204 RdcOhms=5.12278 wdg=2 %R=0.87204 RdcOhms=0.007590236 RdcOhms=0.007590236 emerghkVA=112.5 XHL=3.24
New "Transformer.tr(r:p1udt429-p1udt429lv)" phases=3 windings=2 %loadloss=1.4645 %noloadloss=0.266 normhkVA=550 buses=[p1udt429, p1udt429lv, ] conns=[wye, wye, ] kVs=[12.47, 0.48, ] kVAs=[500, 500, ] taps=[1, 1, ] buses=[p1udt429, p1udt429lv, ] conns=[wye, wye, ] kVs=[12.47, 0.48, ] kVAs=[500, 500, ] taps=[1, 1, ] wdg=1 %R=0.73225 RdcOhms=0.645238 wdg=2 %R=0.73225 RdcOhms=0.0009560256 RdcOhms=0.0009560256 emerghkVA=750 XHL=4.36
New "Transformer.tr(r:p1udt449-p1udt449lv)" phases=1 windings=3 %loadloss=0.798816 %noloadloss=0.472 normhkVA=27.5 buses=[p1udt449.1, p1udt449lv.1.0, p1udt449lv.0.2, ] conns=[wye, wye, wye, ] kVs=[7.2, 0.12, 0.12, ] kVAs=[25, 25, 25, ] taps=[1, 1, 1, ] buses=[p1udt449.1, p1udt449lv.1.0, p1udt449lv.0.2, ] conns=[wye, wye, wye, ] kVs=[7.2, 0.12, 0.12, ] kVAs=[25, 25, 25, ] taps=[1, 1, 1, ] wdg=1 %R=0.266272 RdcOhms=4.693204 wdg=2 %R=0.532544 RdcOhms=0.002607335 wdg=3 %R=0.532544 RdcOhms=0.002607335 RdcOhms=0.002607335 emerghkVA=37.5 XHL=2.4 XLT=2.4 XHT=1.6
New "Transformer.tr(r:p1udt370-p1udt370lv)" phases=1 windings=3 %loadloss=0.798816 %noloadloss=0.472 normhkVA=27.5 buses=[p1udt370.3, p1udt370lv.1.0, p1udt370lv.0.2, ] conns=[wye, wye, wye, ] kVs=[7.2, 0.12, 0.12, ] kVAs=[25, 25, 25, ] taps=[1, 1, 1, ] buses=[p1udt370.3, p1udt370lv.1.0, p1udt370lv.0.2, ] conns=[wye, wye, wye, ] kVs=[7.2, 0.12, 0.12, ] kVAs=[25, 25, 25, ] taps=[1, 1, 1, ] wdg=1 %R=0.266272 RdcOhms=4.693204 wdg=2 %R=0.532544 RdcOhms=0.002607335 wdg=3 %R=0.532544 RdcOhms=0.002607335 RdcOhms=0.002607335 emerghkVA=37.5 XHL=2.4 XLT=2.4 XHT=1.6
New "Transformer.tr(r:p1udt455-p1udt455lv)" phases=3 windings=2 %loadloss=1.74408 %noloadloss=0.6 normhkVA=82.5 buses=[p1udt455, p1udt455lv, ] conns=[wye, wye, ] kVs=[12.47, 0.48, ] kVAs=[75, 75, ] taps=[1, 1, ] buses=[p1udt455, p1udt455lv, ] conns=[wye, wye, ] kVs=[12.47, 0.48, ] kVAs=[75, 75, ] taps=[1, 1, ] wdg=1 %R=0.87204 RdcOhms=5.12278 wdg=2 %R=0.87204 RdcOhms=0.007590236 RdcOhms=0.007590236 emerghkVA=112.5 XHL=3.24
New "Transformer.tr(r:p1udt338-p1udt338lv)" phases=1 windings=3 %loadloss=0.798816 %noloadloss=0.37 normhkVA=55 buses=[p1udt338.3, p1udt338lv.1.0, p1udt338lv.0.2, ] conns=[wye, wye, wye, ] kVs=[7.2, 0.12, 0.12, ] kVAs=[50, 50, 50, ] taps=[1, 1, 1, ] buses=[p1udt338.3, p1udt338lv.1.0, p1udt338lv.0.2, ] conns=[wye, wye, wye, ] kVs=[7.2, 0.12, 0.12, ] kVAs=[50, 50, 50, ] taps=[1, 1, 1, ] wdg=1 %R=0.266272 RdcOhms=2.346602 wdg=2 %R=0.532544 RdcOhms=0.001303668 wdg=3 %R=0.532544 RdcOhms=0.001303668 RdcOhms=0.001303668 emerghkVA=75 XHL=2.4 XLT=2.4 XHT=1.6
New "Transformer.tr(r:p1udt224-p1udt224lv)" phases=1 windings=3 %loadloss=0.798816 %noloadloss=0.37 normhkVA=55 buses=[p1udt224.3, p1udt224lv.1.0, p1udt224lv.0.2, ] conns=[wye, wye, wye, ] kVs=[7.2, 0.12, 0.12, ] kVAs=[50, 50, 50, ] taps=[1, 1, 1, ] buses=[p1udt224.3, p1udt224lv.1.0, p1udt224lv.0.2, ] conns=[wye, wye, wye, ] kVs=[7.2, 0.12, 0.12, ] kVAs=[50, 50, 50, ] taps=[1, 1, 1, ] wdg=1 %R=0.266272 RdcOhms=2.346602 wdg=2 %R=0.532544 RdcOhms=0.001303668 wdg=3 %R=0.532544 RdcOhms=0.001303668 RdcOhms=0.001303668 emerghkVA=75 XHL=2.4 XLT=2.4 XHT=1.6
New "Transformer.tr(r:p1udt15-p1udt15lv)" phases=1 windings=3 %loadloss=0.49926 %noloadloss=0.38 normhkVA=82.5 buses=[p1udt15.1, p1udt15lv.1.0, p1udt15lv.0.2, ] conns=[wye, wye, wye, ] kVs=[7.2, 0.12, 0.12, ] kVAs=[75, 75, 75, ] taps=[1, 1, 1, ] buses=[p1udt15.1, p1udt15lv.1.0, p1udt15lv.0.2, ] conns=[wye, wye, wye, ] kVs=[7.2, 0.12, 0.12, ] kVAs=[75, 75, 75, ] taps=[1, 1, 1, ] wdg=1 %R=0.16642 RdcOhms=0.9777508 wdg=2 %R=0.33284 RdcOhms=0.0005431949 wdg=3 %R=0.33284 RdcOhms=0.0005431949 RdcOhms=0.0005431949 emerghkVA=112.5 XHL=2.4 XLT=2.4 XHT=1.6
New "Transformer.tr(r:p1udt345-p1udt345lv)" phases=1 windings=3 %loadloss=0.49926 %noloadloss=0.38 normhkVA=82.5 buses=[p1udt345.3, p1udt345lv.1.0, p1udt345lv.0.2, ] conns=[wye, wye, wye, ] kVs=[7.2, 0.12, 0.12, ] kVAs=[75, 75, 75, ] taps=[1, 1, 1, ] buses=[p1udt345.3, p1udt345lv.1.0, p1udt345lv.0.2, ] conns=[wye, wye, wye, ] kVs=[7.2, 0.12, 0.12, ] kVAs=[75, 75, 75, ] taps=[1, 1, 1, ] wdg=1 %R=0.16642 RdcOhms=0.9777508 wdg=2 %R=0.33284 RdcOhms=0.0005431949 wdg=3 %R=0.33284 RdcOhms=0.0005431949 RdcOhms=0.0005431949 emerghkVA=112.5 XHL=2.4 XLT=2.4 XHT=1.6
New "Transformer.tr(r:p1udt344-p1udt344lv)" phases=3 windings=2 %loadloss=1.82396 %noloadloss=0.325 normhkVA=330 buses=[p1udt344, p1udt344lv, ] conns=[wye, wye, ] kVs=[12.47, 0.48, ] kVAs=[300, 300, ] taps=[1, 1, ] buses=[p1udt344, p1udt344lv, ] conns=[wye, wye, ] kVs=[12.47, 0.48, ] kVAs=[300, 300, ] taps=[1, 1, ] wdg=1 %R=0.91198 RdcOhms=1.339352 wdg=2 %R=0.91198 RdcOhms=0.001984468 RdcOhms=0.001984468 emerghkVA=450 XHL=3.76
New "Transformer.tr(r:p1udt343-p1udt343lv)" phases=1 windings=3 %loadloss=0.798816 %noloadloss=0.472 normhkVA=27.5 buses=[p1udt343.2, p1udt343lv.1.0, p1udt343lv.0.2, ] conns=[wye, wye, wye, ] kVs=[7.2, 0.12, 0.12, ] kVAs=[25, 25, 25, ] taps=[1, 1, 1, ] buses=[p1udt343.2, p1udt343lv.1.0, p1udt343lv.0.2, ] conns=[wye, wye, wye, ] kVs=[7.2, 0.12, 0.12, ] kVAs=[25, 25, 25, ] taps=[1, 1, 1, ] wdg=1 %R=0.266272 RdcOhms=4.693204 wdg=2 %R=0.532544 RdcOhms=0.002607335 wdg=3 %R=0.532544 RdcOhms=0.002607335 RdcOhms=0.002607335 emerghkVA=37.5 XHL=2.4 XLT=2.4 XHT=1.6
New "Transformer.tr(r:p1udt229-p1udt229lv)" phases=1 windings=3 %loadloss=0.798816 %noloadloss=0.37 normhkVA=55 buses=[p1udt229.1, p1udt229lv.1.0, p1udt229lv.0.2, ] conns=[wye, wye, wye, ] kVs=[7.2, 0.12, 0.12, ] kVAs=[50, 50, 50, ] taps=[1, 1, 1, ] buses=[p1udt229.1, p1udt229lv.1.0, p1udt229lv.0.2, ] conns=[wye, wye, wye, ] kVs=[7.2, 0.12, 0.12, ] kVAs=[50, 50, 50, ] taps=[1, 1, 1, ] wdg=1 %R=0.266272 RdcOhms=2.346602 wdg=2 %R=0.532544 RdcOhms=0.001303668 wdg=3 %R=0.532544 RdcOhms=0.001303668 RdcOhms=0.001303668 emerghkVA=75 XHL=2.4 XLT=2.4 XHT=1.6
New "Transformer.tr(r:p1udt342-p1udt342lv)" phases=1 windings=3 %loadloss=0.49926 %noloadloss=0.38 normhkVA=82.5 buses=[p1udt342.3, p1udt342lv.1.0, p1udt342lv.0.2, ] conns=[wye, wye, wye, ] kVs=[7.2, 0.12, 0.12, ] kVAs=[75, 75, 75, ] taps=[1, 1, 1, ] buses=[p1udt342.3, p1udt342lv.1.0, p1udt342lv.0.2, ] conns=[wye, wye, wye, ] kVs=[7.2, 0.12, 0.12, ] kVAs=[75, 75, 75, ] taps=[1, 1, 1, ] wdg=1 %R=0.16642 RdcOhms=0.9777508 wdg=2 %R=0.33284 RdcOhms=0.0005431949 wdg=3 %R=0.33284 RdcOhms=0.0005431949 RdcOhms=0.0005431949 emerghkVA=112.5 XHL=2.4 XLT=2.4 XHT=1.6
New "Transformer.tr(r:p1udt341-p1udt341lv)" phases=1 windings=3 %loadloss=0.49926 %noloadloss=0.38 normhkVA=82.5 buses=[p1udt341.2, p1udt341lv.1.0, p1udt341lv.0.2, ] conns=[wye, wye, wye, ] kVs=[7.2, 0.12, 0.12, ] kVAs=[75, 75, 75, ] taps=[1, 1, 1, ] buses=[p1udt341.2, p1udt341lv.1.0, p1udt341lv.0.2, ] conns=[wye, wye, wye, ] kVs=[7.2, 0.12, 0.12, ] kVAs=[75, 75, 75, ] taps=[1, 1, 1, ] wdg=1 %R=0.16642 RdcOhms=0.9777508 wdg=2 %R=0.33284 RdcOhms=0.0005431949 wdg=3 %R=0.33284 RdcOhms=0.0005431949 RdcOhms=0.0005431949 emerghkVA=112.5 XHL=2.4 XLT=2.4 XHT=1.6
New "Transformer.tr(r:p1udt376-p1udt376lv)" phases=1 windings=3 %loadloss=0.798816 %noloadloss=0.37 normhkVA=55 buses=[p1udt376.3, p1udt376lv.1.0, p1udt376lv.0.2, ] conns=[wye, wye, wye, ] kVs=[7.2, 0.12, 0.12, ] kVAs=[50, 50, 50, ] taps=[1, 1, 1, ] buses=[p1udt376.3, p1udt376lv.1.0, p1udt376lv.0.2, ] conns=[wye, wye, wye, ] kVs=[7.2, 0.12, 0.12, ] kVAs=[50, 50, 50, ] taps=[1, 1, 1, ] wdg=1 %R=0.266272 RdcOhms=2.346602 wdg=2 %R=0.532544 RdcOhms=0.001303668 wdg=3 %R=0.532544 RdcOhms=0.001303668 RdcOhms=0.001303668 emerghkVA=75 XHL=2.4 XLT=2.4 XHT=1.6
New "Transformer.tr(r:p1udt374-p1udt374lv)" phases=1 windings=3 %loadloss=0.798816 %noloadloss=0.37 normhkVA=55 buses=[p1udt374.3, p1udt374lv.1.0, p1udt374lv.0.2, ] conns=[wye, wye, wye, ] kVs=[7.2, 0.12, 0.12, ] kVAs=[50, 50, 50, ] taps=[1, 1, 1, ] buses=[p1udt374.3, p1udt374lv.1.0, p1udt374lv.0.2, ] conns=[wye, wye, wye, ] kVs=[7.2, 0.12, 0.12, ] kVAs=[50, 50, 50, ] taps=[1, 1, 1, ] wdg=1 %R=0.266272 RdcOhms=2.346602 wdg=2 %R=0.532544 RdcOhms=0.001303668 wdg=3 %R=0.532544 RdcOhms=0.001303668 RdcOhms=0.001303668 emerghkVA=75 XHL=2.4 XLT=2.4 XHT=1.6
New "Transformer.tr(r:p1udt373-p1udt373lv)" phases=1 windings=3 %loadloss=0.798816 %noloadloss=0.37 normhkVA=55 buses=[p1udt373.1, p1udt373lv.1.0, p1udt373lv.0.2, ] conns=[wye, wye, wye, ] kVs=[7.2, 0.12, 0.12, ] kVAs=[50, 50, 50, ] taps=[1, 1, 1, ] buses=[p1udt373.1, p1udt373lv.1.0, p1udt373lv.0.2, ] conns=[wye, wye, wye, ] kVs=[7.2, 0.12, 0.12, ] kVAs=[50, 50, 50, ] taps=[1, 1, 1, ] wdg=1 %R=0.266272 RdcOhms=2.346602 wdg=2 %R=0.532544 RdcOhms=0.001303668 wdg=3 %R=0.532544 RdcOhms=0.001303668 RdcOhms=0.001303668 emerghkVA=75 XHL=2.4 XLT=2.4 XHT=1.6
New "Transformer.tr(r:p1udt372-p1udt372lv)" phases=1 windings=3 %loadloss=0.798816 %noloadloss=0.37 normhkVA=55 buses=[p1udt372.1, p1udt372lv.1.0, p1udt372lv.0.2, ] conns=[wye, wye, wye, ] kVs=[7.2, 0.12, 0.12, ] kVAs=[50, 50, 50, ] taps=[1, 1, 1, ] buses=[p1udt372.1, p1udt372lv.1.0, p1udt372lv.0.2, ] conns=[wye, wye, wye, ] kVs=[7.2, 0.12, 0.12, ] kVAs=[50, 50, 50, ] taps=[1, 1, 1, ] wdg=1 %R=0.266272 RdcOhms=2.346602 wdg=2 %R=0.532544 RdcOhms=0.001303668 wdg=3 %R=0.532544 RdcOhms=0.001303668 RdcOhms=0.001303668 emerghkVA=75 XHL=2.4 XLT=2.4 XHT=1.6
New "Transformer.tr(r:p1udt333-p1udt333lv)" phases=1 windings=3 %loadloss=0.49926 %noloadloss=0.38 normhkVA=82.5 buses=[p1udt333.3, p1udt333lv.1.0, p1udt333lv.0.2, ] conns=[wye, wye, wye, ] kVs=[7.2, 0.12, 0.12, ] kVAs=[75, 75, 75, ] taps=[1, 1, 1, ] buses=[p1udt333.3, p1udt333lv.1.0, p1udt333lv.0.2, ] conns=[wye, wye, wye, ] kVs=[7.2, 0.12, 0.12, ] kVAs=[75, 75, 75, ] taps=[1, 1, 1, ] wdg=1 %R=0.16642 RdcOhms=0.9777508 wdg=2 %R=0.33284 RdcOhms=0.0005431949 wdg=3 %R=0.33284 RdcOhms=0.0005431949 RdcOhms=0.0005431949 emerghkVA=112.5 XHL=2.4 XLT=2.4 XHT=1.6
New "Transformer.tr(r:p1udt332-p1udt332lv)" phases=1 windings=3 %loadloss=0.798816 %noloadloss=0.37 normhkVA=55 buses=[p1udt332.3, p1udt332lv.1.0, p1udt332lv.0.2, ] conns=[wye, wye, wye, ] kVs=[7.2, 0.12, 0.12, ] kVAs=[50, 50, 50, ] taps=[1, 1, 1, ] buses=[p1udt332.3, p1udt332lv.1.0, p1udt332lv.0.2, ] conns=[wye, wye, wye, ] kVs=[7.2, 0.12, 0.12, ] kVAs=[50, 50, 50, ] taps=[1, 1, 1, ] wdg=1 %R=0.266272 RdcOhms=2.346602 wdg=2 %R=0.532544 RdcOhms=0.001303668 wdg=3 %R=0.532544 RdcOhms=0.001303668 RdcOhms=0.001303668 emerghkVA=75 XHL=2.4 XLT=2.4 XHT=1.6
New "Transformer.tr(r:p1udt331-p1udt331lv)" phases=1 windings=3 %loadloss=0.49926 %noloadloss=0.38 normhkVA=82.5 buses=[p1udt331.2, p1udt331lv.1.0, p1udt331lv.0.2, ] conns=[wye, wye, wye, ] kVs=[7.2, 0.12, 0.12, ] kVAs=[75, 75, 75, ] taps=[1, 1, 1, ] buses=[p1udt331.2, p1udt331lv.1.0, p1udt331lv.0.2, ] conns=[wye, wye, wye, ] kVs=[7.2, 0.12, 0.12, ] kVAs=[75, 75, 75, ] taps=[1, 1, 1, ] wdg=1 %R=0.16642 RdcOhms=0.9777508 wdg=2 %R=0.33284 RdcOhms=0.0005431949 wdg=3 %R=0.33284 RdcOhms=0.0005431949 RdcOhms=0.0005431949 emerghkVA=112.5 XHL=2.4 XLT=2.4 XHT=1.6